MODEL 1
REMARK VINA RESULT:      -5.3      0.000      0.000
REMARK WARNING: 32 MAX_TORS EXCEEDED!!!
REMARK  88 active torsions:
REMARK  status: ('A' for Active; 'I' for Inactive)
REMARK    1  A    between atoms: C_1  and  O_28 
REMARK    2  A    between atoms: C_2  and  C_6 
REMARK    3  A    between atoms: C_3  and  O_8 
REMARK    4  A    between atoms: C_4  and  O_10 
REMARK    5  A    between atoms: C_5  and  O_11 
REMARK    6  A    between atoms: C_6  and  O_58 
REMARK    7  A    between atoms: O_11  and  C_18 
REMARK    8  A    between atoms: O_13  and  C_16 
REMARK    9  A    between atoms: C_15  and  C_21 
REMARK   10  A    between atoms: O_17  and  C_20 
REMARK   11  A    between atoms: O_17  and  C_39 
REMARK   12  A    between atoms: O_19  and  C_22 
REMARK   13  A    between atoms: O_19  and  C_153 
REMARK   14  A    between atoms: C_21  and  O_60 
REMARK   15  A    between atoms: O_24  and  C_27 
REMARK   16  A    between atoms: C_26  and  C_32 
REMARK   17  A    between atoms: O_28  and  C_31 
REMARK   18  A    between atoms: C_29  and  O_49 
REMARK   19  A    between atoms: O_30  and  C_33 
REMARK   20  A    between atoms: C_32  and  O_56 
REMARK   21  A    between atoms: O_35  and  C_38 
REMARK   22  A    between atoms: C_37  and  C_42 
REMARK   23  A    between atoms: O_40  and  C_43 
REMARK   24  A    between atoms: C_42  and  O_62 
REMARK   25  A    between atoms: O_45  and  C_48 
REMARK   26  A    between atoms: C_47  and  C_53 
REMARK   27  A    between atoms: O_49  and  C_52 
REMARK   28  A    between atoms: O_51  and  C_54 
REMARK   29  A    between atoms: O_51  and  C_64 
REMARK   30  A    between atoms: C_53  and  O_55 
REMARK   31  A    between atoms: C_64  and  C_65 
REMARK   32  A    between atoms: C_65  and  C_66 
REMARK   33  A    between atoms: C_65  and  C_75 
REMARK   34  A    between atoms: C_66  and  C_67 
REMARK   35  A    between atoms: C_67  and  C_68 
REMARK   36  A    between atoms: C_67  and  C_79 
REMARK   37  A    between atoms: C_68  and  C_69 
REMARK   38  A    between atoms: C_69  and  C_70 
REMARK   39  A    between atoms: C_69  and  C_83 
REMARK   40  A    between atoms: C_70  and  C_71 
REMARK   41  A    between atoms: C_71  and  C_72 
REMARK   42  A    between atoms: C_71  and  C_87 
REMARK   43  A    between atoms: C_72  and  C_73 
REMARK   44  A    between atoms: C_73  and  C_91 
REMARK   45  A    between atoms: C_75  and  C_76 
REMARK   46  A    between atoms: C_76  and  C_77 
REMARK   47  A    between atoms: C_77  and  N_95 
REMARK   48  A    between atoms: C_79  and  C_80 
REMARK   49  A    between atoms: C_80  and  C_81 
REMARK   50  A    between atoms: C_81  and  N_96 
REMARK   51  A    between atoms: C_83  and  C_84 
REMARK   52  A    between atoms: C_84  and  C_85 
REMARK   53  A    between atoms: C_85  and  N_97 
REMARK   54  A    between atoms: C_87  and  C_88 
REMARK   55  A    between atoms: C_88  and  C_89 
REMARK   56  A    between atoms: C_89  and  N_98 
REMARK   57  A    between atoms: C_91  and  C_92 
REMARK   58  A    between atoms: C_92  and  C_93 
REMARK   59  A    between atoms: C_93  and  N_99 
REMARK   60  A    between atoms: N_118  and  C_121 
REMARK   61  A    between atoms: C_121  and  C_127 
REMARK   62  A    between atoms: C_122  and  C_127 
REMARK   63  A    between atoms: C_122  and  C_134 
REMARK   64  A    between atoms: N_124  and  C_131 
REMARK   65  A    between atoms: C_128  and  C_129 
REMARK   66  A    between atoms: C_128  and  C_138 
REMARK   67  A    between atoms: C_129  and  C_131 
REMARK   68  A    between atoms: N_133  and  C_144 
REMARK   69  A    between atoms: C_134  and  C_145 
REMARK   70  A    between atoms: C_134  and  C_151 
REMARK   71  A    between atoms: C_136  and  C_144 
REMARK   72  A    between atoms: C_136  and  C_148 
REMARK   73  A    between atoms: C_138  and  C_154 
REMARK   74  A    between atoms: C_138  and  C_145 
REMARK   75  A    between atoms: C_140  and  C_148 
REMARK   76  A    between atoms: C_140  and  C_141 
REMARK   77  A    between atoms: C_141  and  C_155 
REMARK   78  A    between atoms: C_142  and  C_153 
REMARK   79  A    between atoms: C_142  and  C_151 
REMARK   80  A    between atoms: C_142  and  C_152 
REMARK   81  A    between atoms: C_143  and  N_149 
REMARK   82  A    between atoms: C_143  and  C_146 
REMARK   83  A    between atoms: C_146  and  C_152 
REMARK   84  A    between atoms: C_154  and  C_155 
REMARK   85  A    between atoms: C_155  and  C_161 
REMARK   86  A    between atoms: C_158  and  C_163 
REMARK   87  A    between atoms: C_158  and  C_161 
REMARK   88  A    between atoms: N_159  and  C_163 
ROOT
HETATM    1  C   UNL     1       9.884 -19.976   8.984  1.00  0.00     0.187 C 
HETATM    2  C   UNL     1       9.028 -21.244   9.202  1.00  0.00     0.180 C 
HETATM    3  C   UNL     1       9.025 -18.823   8.423  1.00  0.00     0.183 C 
HETATM    4  C   UNL     1       8.095 -19.306   7.285  1.00  0.00     0.204 C 
HETATM    5  C   UNL     1       7.217 -20.518   7.757  1.00  0.00     0.292 C 
HETATM    6  O   UNL     1       7.622 -20.976   9.051  1.00  0.00    -0.348 OA
ENDROOT
BRANCH   1   7
HETATM    7  O   UNL     1      10.436 -19.583  10.248  1.00  0.00    -0.348 OA
BRANCH   7   8
HETATM    8  C   UNL     1      11.035 -20.644  11.007  1.00  0.00     0.292 C 
HETATM    9  O   UNL     1      10.485 -20.564  12.319  1.00  0.00    -0.348 OA
HETATM   10  C   UNL     1      11.122 -21.346  13.342  1.00  0.00     0.180 C 
HETATM   11  C   UNL     1      12.664 -21.355  13.290  1.00  0.00     0.187 C 
HETATM   12  C   UNL     1      13.207 -20.304  12.330  1.00  0.00     0.183 C 
HETATM   13  C   UNL     1      12.596 -20.524  10.942  1.00  0.00     0.204 C 
BRANCH  10  14
HETATM   14  C   UNL     1      10.535 -22.766  13.304  1.00  0.00     0.198 C 
BRANCH  14  15
HETATM   15  O   UNL     1      10.495 -23.326  14.616  1.00  0.00    -0.398 OA
HETATM   16  H   UNL     1       9.552 -23.406  14.858  1.00  0.00     0.209 HD
ENDBRANCH  14  15
ENDBRANCH  10  14
BRANCH  11  17
HETATM   17  O   UNL     1      13.191 -21.039  14.588  1.00  0.00    -0.348 OA
BRANCH  17  18
HETATM   18  C   UNL     1      13.936 -22.103  15.170  1.00  0.00     0.292 C 
HETATM   19  O   UNL     1      13.634 -22.166  16.570  1.00  0.00    -0.351 OA
HETATM   20  C   UNL     1      13.980 -23.441  17.148  1.00  0.00     0.150 C 
HETATM   21  C   UNL     1      15.252 -24.013  16.494  1.00  0.00     0.068 C 
HETATM   22  C   UNL     1      16.164 -22.861  16.046  1.00  0.00     0.154 C 
HETATM   23  C   UNL     1      15.496 -21.958  14.955  1.00  0.00     0.205 C 
BRANCH  20  24
HETATM   24  C   UNL     1      12.767 -24.384  17.153  1.00  0.00     0.196 C 
BRANCH  24  25
HETATM   25  O   UNL     1      11.542 -23.663  17.255  1.00  0.00    -0.398 OA
HETATM   26  H   UNL     1      11.186 -23.755  18.153  1.00  0.00     0.209 HD
ENDBRANCH  24  25
ENDBRANCH  20  24
BRANCH  22  27
HETATM   27  O   UNL     1      16.461 -22.081  17.217  1.00  0.00    -0.393 OA
HETATM   28  H   UNL     1      16.008 -21.220  17.117  1.00  0.00     0.210 HD
ENDBRANCH  22  27
BRANCH  23  29
HETATM   29  O   UNL     1      15.982 -20.543  15.040  1.00  0.00    -0.377 OA
BRANCH  29  30
HETATM   30  C   UNL     1      16.509 -19.907  13.803  1.00  0.00     0.185 C 
BRANCH  30  31
HETATM   31  C   UNL     1      17.035 -18.392  13.985  1.00  0.00     0.039 C 
HETATM   32  C   UNL     1      18.234 -18.163  13.052  1.00  0.00     0.025 C 
BRANCH  31  33
HETATM   33  C   UNL     1      17.416 -18.044  15.525  1.00  0.00     0.036 C 
BRANCH  33  34
HETATM   34  C   UNL     1      18.876 -18.282  16.210  1.00  0.00     0.019 C 
HETATM   35  C   UNL     1      18.576 -18.162  17.729  1.00  0.00     0.023 C 
BRANCH  34  36
HETATM   36  C   UNL     1      19.882 -17.101  15.735  1.00  0.00     0.033 C 
BRANCH  36  37
HETATM   37  C   UNL     1      19.701 -15.478  15.883  1.00  0.00     0.019 C 
HETATM   38  C   UNL     1      20.542 -14.766  14.811  1.00  0.00     0.023 C 
BRANCH  37  39
HETATM   39  C   UNL     1      20.276 -15.117  17.336  1.00  0.00     0.033 C 
BRANCH  39  40
HETATM   40  C   UNL     1      21.735 -15.399  17.998  1.00  0.00     0.019 C 
HETATM   41  C   UNL     1      21.457 -16.426  19.129  1.00  0.00     0.023 C 
BRANCH  40  42
HETATM   42  C   UNL     1      22.867 -15.948  17.066  1.00  0.00     0.033 C 
BRANCH  42  43
HETATM   43  C   UNL     1      24.275 -16.496  17.517  1.00  0.00     0.014 C 
HETATM   44  C   UNL     1      24.242 -18.032  17.282  1.00  0.00     0.023 C 
HETATM   45  C   UNL     1      24.567 -16.344  19.023  1.00  0.00     0.023 C 
BRANCH  43  46
HETATM   46  C   UNL     1      25.441 -15.849  16.729  1.00  0.00     0.136 C 
HETATM   47  O   UNL     1      26.581 -16.314  16.822  1.00  0.00    -0.297 OA
BRANCH  46  48
HETATM   48  C   UNL     1      25.213 -14.578  15.914  1.00  0.00     0.109 C 
BRANCH  48  49
HETATM   49  C   UNL     1      26.013 -13.405  16.501  1.00  0.00     0.279 C 
BRANCH  49  50
HETATM   50  N   UNL     1      26.647 -12.568  15.461  1.00  0.00     0.080 N 
HETATM   51  C   UNL     1      27.510 -11.535  16.038  1.00  0.00     0.309 C 
HETATM   52  C   UNL     1      27.438 -13.404  14.551  1.00  0.00     0.309 C 
ENDBRANCH  49  50
ENDBRANCH  48  49
ENDBRANCH  46  48
ENDBRANCH  43  46
ENDBRANCH  42  43
ENDBRANCH  40  42
BRANCH  40  53
HETATM   53  C   UNL     1      22.172 -14.082  18.719  1.00  0.00     0.137 C 
HETATM   54  O   UNL     1      22.959 -13.295  18.203  1.00  0.00    -0.297 OA
BRANCH  53  55
HETATM   55  C   UNL     1      21.761 -13.884  20.164  1.00  0.00     0.109 C 
BRANCH  55  56
HETATM   56  C   UNL     1      20.591 -12.913  20.324  1.00  0.00     0.279 C 
BRANCH  56  57
HETATM   57  N   UNL     1      21.121 -11.546  20.512  1.00  0.00     0.080 N 
HETATM   58  C   UNL     1      20.036 -10.562  20.536  1.00  0.00     0.309 C 
HETATM   59  C   UNL     1      21.913 -11.442  21.734  1.00  0.00     0.309 C 
ENDBRANCH  56  57
ENDBRANCH  55  56
ENDBRANCH  53  55
ENDBRANCH  40  53
ENDBRANCH  39  40
ENDBRANCH  37  39
BRANCH  37  60
HETATM   60  C   UNL     1      18.264 -14.901  15.769  1.00  0.00     0.137 C 
HETATM   61  O   UNL     1      17.773 -14.697  14.653  1.00  0.00    -0.297 OA
BRANCH  60  62
HETATM   62  C   UNL     1      17.422 -14.605  16.986  1.00  0.00     0.109 C 
BRANCH  62  63
HETATM   63  C   UNL     1      17.072 -13.119  17.156  1.00  0.00     0.279 C 
BRANCH  63  64
HETATM   64  N   UNL     1      16.460 -12.849  18.475  1.00  0.00     0.080 N 
HETATM   65  C   UNL     1      15.176 -12.156  18.337  1.00  0.00     0.309 C 
HETATM   66  C   UNL     1      16.256 -14.106  19.201  1.00  0.00     0.309 C 
ENDBRANCH  63  64
ENDBRANCH  62  63
ENDBRANCH  60  62
ENDBRANCH  37  60
ENDBRANCH  36  37
ENDBRANCH  34  36
BRANCH  34  67
HETATM   67  C   UNL     1      19.618 -19.628  15.952  1.00  0.00     0.137 C 
HETATM   68  O   UNL     1      19.096 -20.674  16.355  1.00  0.00    -0.297 OA
BRANCH  67  69
HETATM   69  C   UNL     1      20.982 -19.696  15.249  1.00  0.00     0.109 C 
BRANCH  69  70
HETATM   70  C   UNL     1      21.923 -20.758  15.870  1.00  0.00     0.279 C 
BRANCH  70  71
HETATM   71  N   UNL     1      22.211 -22.002  15.126  1.00  0.00     0.080 N 
HETATM   72  C   UNL     1      21.587 -23.177  15.711  1.00  0.00     0.309 C 
HETATM   73  C   UNL     1      21.726 -21.863  13.745  1.00  0.00     0.309 C 
ENDBRANCH  70  71
ENDBRANCH  69  70
ENDBRANCH  67  69
ENDBRANCH  34  67
ENDBRANCH  33  34
ENDBRANCH  31  33
BRANCH  31  74
HETATM   74  C   UNL     1      15.785 -17.541  13.649  1.00  0.00     0.139 C 
HETATM   75  O   UNL     1      15.440 -17.368  12.473  1.00  0.00    -0.297 OA
BRANCH  74  76
HETATM   76  C   UNL     1      15.043 -16.786  14.730  1.00  0.00     0.109 C 
BRANCH  76  77
HETATM   77  C   UNL     1      14.326 -15.602  14.108  1.00  0.00     0.279 C 
BRANCH  77  78
HETATM   78  N   UNL     1      13.630 -14.731  15.066  1.00  0.00     0.080 N 
HETATM   79  C   UNL     1      14.005 -13.329  14.880  1.00  0.00     0.309 C 
HETATM   80  C   UNL     1      13.946 -15.147  16.437  1.00  0.00     0.309 C 
ENDBRANCH  77  78
ENDBRANCH  76  77
ENDBRANCH  74  76
ENDBRANCH  31  74
ENDBRANCH  30  31
ENDBRANCH  29  30
ENDBRANCH  23  29
ENDBRANCH  17  18
ENDBRANCH  11  17
BRANCH  12  81
HETATM   81  O   UNL     1      12.941 -18.983  12.820  1.00  0.00    -0.390 OA
HETATM   82  H   UNL     1      12.500 -19.120  13.684  1.00  0.00     0.210 HD
ENDBRANCH  12  81
BRANCH  13  83
HETATM   83  O   UNL     1      13.127 -19.521   9.996  1.00  0.00    -0.388 OA
HETATM   84  H   UNL     1      13.378 -18.719  10.481  1.00  0.00     0.210 HD
ENDBRANCH  13  83
ENDBRANCH   7   8
ENDBRANCH   1   7
BRANCH   2  85
HETATM   85  C   UNL     1       9.511 -22.395   8.300  1.00  0.00     0.198 C 
BRANCH  85  86
HETATM   86  O   UNL     1      10.544 -21.975   7.419  1.00  0.00    -0.398 OA
HETATM   87  H   UNL     1      11.105 -22.745   7.218  1.00  0.00     0.209 HD
ENDBRANCH  85  86
ENDBRANCH   2  85
BRANCH   3  88
HETATM   88  O   UNL     1       8.250 -18.210   9.466  1.00  0.00    -0.390 OA
HETATM   89  H   UNL     1       8.761 -18.310  10.296  1.00  0.00     0.210 HD
ENDBRANCH   3  88
BRANCH   4  90
HETATM   90  O   UNL     1       7.294 -18.189   6.732  1.00  0.00    -0.388 OA
HETATM   91  H   UNL     1       7.380 -17.414   7.308  1.00  0.00     0.210 HD
ENDBRANCH   4  90
BRANCH   5  92
HETATM   92  O   UNL     1       5.828 -20.143   7.874  1.00  0.00    -0.348 OA
BRANCH  92  93
HETATM   93  C   UNL     1       4.864 -21.000   7.195  1.00  0.00     0.187 C 
HETATM   94  C   UNL     1       3.466 -20.836   7.817  1.00  0.00     0.180 C 
HETATM   95  O   UNL     1       2.471 -20.457   6.865  1.00  0.00    -0.348 OA
HETATM   96  C   UNL     1       2.432 -21.173   5.633  1.00  0.00     0.292 C 
HETATM   97  C   UNL     1       3.786 -21.191   4.794  1.00  0.00     0.208 C 
HETATM   98  C   UNL     1       4.861 -20.530   5.707  1.00  0.00     0.183 C 
BRANCH  94  99
HETATM   99  C   UNL     1       2.978 -22.078   8.577  1.00  0.00     0.198 C 
BRANCH  99 100
HETATM  100  O   UNL     1       1.691 -21.840   9.146  1.00  0.00    -0.398 OA
HETATM  101  H   UNL     1       1.589 -22.439   9.911  1.00  0.00     0.209 HD
ENDBRANCH  99 100
ENDBRANCH  94  99
BRANCH  96 102
HETATM  102  O   UNL     1       1.408 -20.505   4.897  1.00  0.00    -0.348 OA
BRANCH 102 103
HETATM  103  C   UNL     1       0.232 -21.262   4.657  1.00  0.00     0.187 C 
HETATM  104  C   UNL     1       0.544 -22.770   4.754  1.00  0.00     0.176 C 
HETATM  105  O   UNL     1      -0.575 -23.533   5.268  1.00  0.00    -0.378 OA
HETATM  106  C   UNL     1      -1.848 -23.034   4.846  1.00  0.00     0.202 C 
HETATM  107  C   UNL     1      -2.131 -21.629   5.423  1.00  0.00     0.173 C 
HETATM  108  C   UNL     1      -0.810 -20.888   5.727  1.00  0.00     0.180 C 
BRANCH 104 109
HETATM  109  C   UNL     1       0.989 -23.380   3.420  1.00  0.00     0.198 C 
BRANCH 109 110
HETATM  110  O   UNL     1       1.067 -24.800   3.535  1.00  0.00    -0.398 OA
HETATM  111  H   UNL     1       1.657 -25.101   2.817  1.00  0.00     0.209 HD
ENDBRANCH 109 110
ENDBRANCH 104 109
BRANCH 107 112
HETATM  112  O   UNL     1      -2.989 -21.691   6.621  1.00  0.00    -0.391 OA
HETATM  113  H   UNL     1      -2.435 -21.781   7.412  1.00  0.00     0.210 HD
ENDBRANCH 107 112
BRANCH 108 114
HETATM  114  O   UNL     1      -0.358 -21.208   7.057  1.00  0.00    -0.390 OA
HETATM  115  H   UNL     1      -0.616 -20.472   7.642  1.00  0.00     0.210 HD
ENDBRANCH 108 114
ENDBRANCH 102 103
ENDBRANCH  96 102
BRANCH  97 116
HETATM  116  O   UNL     1       3.577 -20.526   3.460  1.00  0.00    -0.369 OA
BRANCH 116 117
HETATM  117  C   UNL     1       3.572 -21.170   2.140  1.00  0.00     0.168 C 
BRANCH 117 118
HETATM  118  C   UNL     1       3.825 -20.331   0.794  1.00  0.00     0.046 C 
HETATM  119  C   UNL     1       4.084 -18.887   1.254  1.00  0.00     0.026 C 
BRANCH 118 120
HETATM  120  C   UNL     1       2.741 -20.353  -0.438  1.00  0.00     0.036 C 
BRANCH 120 121
HETATM  121  C   UNL     1       2.558 -19.102  -1.520  1.00  0.00     0.019 C 
HETATM  122  C   UNL     1       3.123 -19.746  -2.815  1.00  0.00     0.023 C 
BRANCH 121 123
HETATM  123  C   UNL     1       1.118 -18.566  -1.792  1.00  0.00     0.137 C 
HETATM  124  O   UNL     1       0.808 -18.293  -2.958  1.00  0.00    -0.297 OA
BRANCH 123 125
HETATM  125  C   UNL     1       0.096 -18.344  -0.661  1.00  0.00     0.109 C 
BRANCH 125 126
HETATM  126  C   UNL     1      -0.013 -16.865  -0.223  1.00  0.00     0.279 C 
BRANCH 126 127
HETATM  127  N   UNL     1      -1.325 -16.189  -0.250  1.00  0.00     0.080 N 
HETATM  128  C   UNL     1      -2.000 -16.499  -1.517  1.00  0.00     0.309 C 
HETATM  129  C   UNL     1      -1.231 -14.745  -0.123  1.00  0.00     0.309 C 
ENDBRANCH 126 127
ENDBRANCH 125 126
ENDBRANCH 123 125
ENDBRANCH 121 123
BRANCH 121 130
HETATM  130  C   UNL     1       3.429 -17.762  -1.138  1.00  0.00     0.033 C 
BRANCH 130 131
HETATM  131  C   UNL     1       3.728 -16.432  -2.107  1.00  0.00     0.019 C 
HETATM  132  C   UNL     1       3.958 -16.914  -3.550  1.00  0.00     0.023 C 
BRANCH 131 133
HETATM  133  C   UNL     1       2.650 -15.313  -2.182  1.00  0.00     0.137 C 
HETATM  134  O   UNL     1       2.478 -14.563  -1.213  1.00  0.00    -0.297 OA
BRANCH 133 135
HETATM  135  C   UNL     1       1.804 -15.094  -3.412  1.00  0.00     0.109 C 
BRANCH 135 136
HETATM  136  C   UNL     1       0.721 -14.012  -3.262  1.00  0.00     0.279 C 
BRANCH 136 137
HETATM  137  N   UNL     1       1.022 -12.812  -4.073  1.00  0.00     0.080 N 
HETATM  138  C   UNL     1       1.811 -13.182  -5.252  1.00  0.00     0.309 C 
HETATM  139  C   UNL     1       1.753 -11.807  -3.298  1.00  0.00     0.309 C 
ENDBRANCH 136 137
ENDBRANCH 135 136
ENDBRANCH 133 135
ENDBRANCH 131 133
BRANCH 131 140
HETATM  140  C   UNL     1       5.080 -15.749  -1.568  1.00  0.00     0.033 C 
BRANCH 140 141
HETATM  141  C   UNL     1       6.198 -14.831  -2.351  1.00  0.00     0.019 C 
HETATM  142  C   UNL     1       7.300 -14.567  -1.288  1.00  0.00     0.023 C 
BRANCH 141 143
HETATM  143  C   UNL     1       6.868 -15.404  -3.653  1.00  0.00     0.033 C 
BRANCH 143 144
HETATM  144  C   UNL     1       8.007 -16.500  -3.730  1.00  0.00     0.014 C 
HETATM  145  C   UNL     1       9.350 -15.755  -3.488  1.00  0.00     0.023 C 
HETATM  146  C   UNL     1       8.179 -17.152  -5.118  1.00  0.00     0.023 C 
BRANCH 144 147
HETATM  147  C   UNL     1       7.823 -17.633  -2.687  1.00  0.00     0.136 C 
HETATM  148  O   UNL     1       6.800 -18.324  -2.702  1.00  0.00    -0.297 OA
BRANCH 147 149
HETATM  149  C   UNL     1       8.852 -17.843  -1.579  1.00  0.00     0.109 C 
BRANCH 149 150
HETATM  150  C   UNL     1       8.886 -19.314  -1.130  1.00  0.00     0.279 C 
BRANCH 150 151
HETATM  151  N   UNL     1       9.988 -20.079  -1.755  1.00  0.00     0.080 N 
HETATM  152  C   UNL     1      10.422 -21.200  -0.919  1.00  0.00     0.309 C 
HETATM  153  C   UNL     1       9.570 -20.589  -3.066  1.00  0.00     0.309 C 
ENDBRANCH 150 151
ENDBRANCH 149 150
ENDBRANCH 147 149
ENDBRANCH 144 147
ENDBRANCH 143 144
ENDBRANCH 141 143
BRANCH 141 154
HETATM  154  C   UNL     1       5.536 -13.444  -2.630  1.00  0.00     0.137 C 
HETATM  155  O   UNL     1       5.046 -13.170  -3.731  1.00  0.00    -0.297 OA
BRANCH 154 156
HETATM  156  C   UNL     1       5.675 -12.353  -1.590  1.00  0.00     0.109 C 
BRANCH 156 157
HETATM  157  C   UNL     1       6.352 -11.088  -2.123  1.00  0.00     0.279 C 
BRANCH 157 158
HETATM  158  N   UNL     1       5.895  -9.927  -1.330  1.00  0.00     0.080 N 
HETATM  159  C   UNL     1       4.444  -9.921  -1.169  1.00  0.00     0.309 C 
HETATM  160  C   UNL     1       6.332  -8.670  -1.941  1.00  0.00     0.309 C 
ENDBRANCH 157 158
ENDBRANCH 156 157
ENDBRANCH 154 156
ENDBRANCH 141 154
ENDBRANCH 140 141
ENDBRANCH 131 140
ENDBRANCH 130 131
ENDBRANCH 121 130
ENDBRANCH 120 121
ENDBRANCH 118 120
BRANCH 118 161
HETATM  161  C   UNL     1       5.053 -21.112   0.244  1.00  0.00     0.139 C 
HETATM  162  O   UNL     1       5.734 -20.671  -0.690  1.00  0.00    -0.297 OA
BRANCH 161 163
HETATM  163  C   UNL     1       5.366 -22.495   0.762  1.00  0.00     0.109 C 
BRANCH 163 164
HETATM  164  C   UNL     1       4.982 -23.519  -0.282  1.00  0.00     0.279 C 
BRANCH 164 165
HETATM  165  N   UNL     1       4.029 -24.547   0.161  1.00  0.00     0.080 N 
HETATM  166  C   UNL     1       2.648 -24.097  -0.018  1.00  0.00     0.309 C 
HETATM  167  C   UNL     1       4.252 -24.838   1.581  1.00  0.00     0.309 C 
ENDBRANCH 164 165
ENDBRANCH 163 164
ENDBRANCH 161 163
ENDBRANCH 118 161
ENDBRANCH 117 118
ENDBRANCH 116 117
ENDBRANCH  97 116
BRANCH  98 168
HETATM  168  O   UNL     1       4.683 -19.097   5.681  1.00  0.00    -0.390 OA
HETATM  169  H   UNL     1       3.919 -18.904   6.260  1.00  0.00     0.210 HD
ENDBRANCH  98 168
ENDBRANCH  92  93
ENDBRANCH   5  92
TORSDOF 88
ENDMDL
MODEL 2
REMARK VINA RESULT:      -5.2      8.390     24.482
REMARK WARNING: 32 MAX_TORS EXCEEDED!!!
REMARK  88 active torsions:
REMARK  status: ('A' for Active; 'I' for Inactive)
REMARK    1  A    between atoms: C_1  and  O_28 
REMARK    2  A    between atoms: C_2  and  C_6 
REMARK    3  A    between atoms: C_3  and  O_8 
REMARK    4  A    between atoms: C_4  and  O_10 
REMARK    5  A    between atoms: C_5  and  O_11 
REMARK    6  A    between atoms: C_6  and  O_58 
REMARK    7  A    between atoms: O_11  and  C_18 
REMARK    8  A    between atoms: O_13  and  C_16 
REMARK    9  A    between atoms: C_15  and  C_21 
REMARK   10  A    between atoms: O_17  and  C_20 
REMARK   11  A    between atoms: O_17  and  C_39 
REMARK   12  A    between atoms: O_19  and  C_22 
REMARK   13  A    between atoms: O_19  and  C_153 
REMARK   14  A    between atoms: C_21  and  O_60 
REMARK   15  A    between atoms: O_24  and  C_27 
REMARK   16  A    between atoms: C_26  and  C_32 
REMARK   17  A    between atoms: O_28  and  C_31 
REMARK   18  A    between atoms: C_29  and  O_49 
REMARK   19  A    between atoms: O_30  and  C_33 
REMARK   20  A    between atoms: C_32  and  O_56 
REMARK   21  A    between atoms: O_35  and  C_38 
REMARK   22  A    between atoms: C_37  and  C_42 
REMARK   23  A    between atoms: O_40  and  C_43 
REMARK   24  A    between atoms: C_42  and  O_62 
REMARK   25  A    between atoms: O_45  and  C_48 
REMARK   26  A    between atoms: C_47  and  C_53 
REMARK   27  A    between atoms: O_49  and  C_52 
REMARK   28  A    between atoms: O_51  and  C_54 
REMARK   29  A    between atoms: O_51  and  C_64 
REMARK   30  A    between atoms: C_53  and  O_55 
REMARK   31  A    between atoms: C_64  and  C_65 
REMARK   32  A    between atoms: C_65  and  C_66 
REMARK   33  A    between atoms: C_65  and  C_75 
REMARK   34  A    between atoms: C_66  and  C_67 
REMARK   35  A    between atoms: C_67  and  C_68 
REMARK   36  A    between atoms: C_67  and  C_79 
REMARK   37  A    between atoms: C_68  and  C_69 
REMARK   38  A    between atoms: C_69  and  C_70 
REMARK   39  A    between atoms: C_69  and  C_83 
REMARK   40  A    between atoms: C_70  and  C_71 
REMARK   41  A    between atoms: C_71  and  C_72 
REMARK   42  A    between atoms: C_71  and  C_87 
REMARK   43  A    between atoms: C_72  and  C_73 
REMARK   44  A    between atoms: C_73  and  C_91 
REMARK   45  A    between atoms: C_75  and  C_76 
REMARK   46  A    between atoms: C_76  and  C_77 
REMARK   47  A    between atoms: C_77  and  N_95 
REMARK   48  A    between atoms: C_79  and  C_80 
REMARK   49  A    between atoms: C_80  and  C_81 
REMARK   50  A    between atoms: C_81  and  N_96 
REMARK   51  A    between atoms: C_83  and  C_84 
REMARK   52  A    between atoms: C_84  and  C_85 
REMARK   53  A    between atoms: C_85  and  N_97 
REMARK   54  A    between atoms: C_87  and  C_88 
REMARK   55  A    between atoms: C_88  and  C_89 
REMARK   56  A    between atoms: C_89  and  N_98 
REMARK   57  A    between atoms: C_91  and  C_92 
REMARK   58  A    between atoms: C_92  and  C_93 
REMARK   59  A    between atoms: C_93  and  N_99 
REMARK   60  A    between atoms: N_118  and  C_121 
REMARK   61  A    between atoms: C_121  and  C_127 
REMARK   62  A    between atoms: C_122  and  C_127 
REMARK   63  A    between atoms: C_122  and  C_134 
REMARK   64  A    between atoms: N_124  and  C_131 
REMARK   65  A    between atoms: C_128  and  C_129 
REMARK   66  A    between atoms: C_128  and  C_138 
REMARK   67  A    between atoms: C_129  and  C_131 
REMARK   68  A    between atoms: N_133  and  C_144 
REMARK   69  A    between atoms: C_134  and  C_145 
REMARK   70  A    between atoms: C_134  and  C_151 
REMARK   71  A    between atoms: C_136  and  C_144 
REMARK   72  A    between atoms: C_136  and  C_148 
REMARK   73  A    between atoms: C_138  and  C_154 
REMARK   74  A    between atoms: C_138  and  C_145 
REMARK   75  A    between atoms: C_140  and  C_148 
REMARK   76  A    between atoms: C_140  and  C_141 
REMARK   77  A    between atoms: C_141  and  C_155 
REMARK   78  A    between atoms: C_142  and  C_153 
REMARK   79  A    between atoms: C_142  and  C_151 
REMARK   80  A    between atoms: C_142  and  C_152 
REMARK   81  A    between atoms: C_143  and  N_149 
REMARK   82  A    between atoms: C_143  and  C_146 
REMARK   83  A    between atoms: C_146  and  C_152 
REMARK   84  A    between atoms: C_154  and  C_155 
REMARK   85  A    between atoms: C_155  and  C_161 
REMARK   86  A    between atoms: C_158  and  C_163 
REMARK   87  A    between atoms: C_158  and  C_161 
REMARK   88  A    between atoms: N_159  and  C_163 
ROOT
HETATM    1  C   UNL     1      14.873 -12.415  17.499  1.00  0.00     0.187 C 
HETATM    2  C   UNL     1      14.411 -10.963  17.755  1.00  0.00     0.180 C 
HETATM    3  C   UNL     1      16.000 -12.813  18.475  1.00  0.00     0.183 C 
HETATM    4  C   UNL     1      17.065 -11.697  18.603  1.00  0.00     0.204 C 
HETATM    5  C   UNL     1      16.400 -10.332  18.997  1.00  0.00     0.292 C 
HETATM    6  O   UNL     1      14.971 -10.426  18.967  1.00  0.00    -0.348 OA
ENDROOT
BRANCH   1   7
HETATM    7  O   UNL     1      13.750 -13.286  17.693  1.00  0.00    -0.348 OA
BRANCH   7   8
HETATM    8  C   UNL     1      13.795 -14.512  16.949  1.00  0.00     0.292 C 
HETATM    9  O   UNL     1      15.145 -14.966  16.997  1.00  0.00    -0.348 OA
HETATM   10  C   UNL     1      15.507 -16.031  16.104  1.00  0.00     0.180 C 
HETATM   11  C   UNL     1      14.915 -15.920  14.683  1.00  0.00     0.187 C 
HETATM   12  C   UNL     1      14.292 -14.551  14.433  1.00  0.00     0.183 C 
HETATM   13  C   UNL     1      13.234 -14.275  15.505  1.00  0.00     0.204 C 
BRANCH  10  14
HETATM   14  C   UNL     1      15.151 -17.369  16.773  1.00  0.00     0.198 C 
BRANCH  14  15
HETATM   15  O   UNL     1      15.449 -17.324  18.169  1.00  0.00    -0.398 OA
HETATM   16  H   UNL     1      15.915 -18.155  18.382  1.00  0.00     0.209 HD
ENDBRANCH  14  15
ENDBRANCH  10  14
BRANCH  11  17
HETATM   17  O   UNL     1      15.962 -16.079  13.712  1.00  0.00    -0.348 OA
BRANCH  17  18
HETATM   18  C   UNL     1      17.176 -16.575  14.267  1.00  0.00     0.292 C 
HETATM   19  O   UNL     1      18.274 -15.854  13.694  1.00  0.00    -0.351 OA
HETATM   20  C   UNL     1      19.474 -15.966  14.484  1.00  0.00     0.150 C 
HETATM   21  C   UNL     1      19.578 -17.360  15.131  1.00  0.00     0.068 C 
HETATM   22  C   UNL     1      18.901 -18.400  14.225  1.00  0.00     0.154 C 
HETATM   23  C   UNL     1      17.369 -18.129  14.044  1.00  0.00     0.205 C 
BRANCH  20  24
HETATM   24  C   UNL     1      19.599 -14.783  15.456  1.00  0.00     0.196 C 
BRANCH  24  25
HETATM   25  O   UNL     1      19.166 -13.564  14.859  1.00  0.00    -0.398 OA
HETATM   26  H   UNL     1      18.283 -13.687  14.475  1.00  0.00     0.209 HD
ENDBRANCH  24  25
ENDBRANCH  20  24
BRANCH  22  27
HETATM   27  O   UNL     1      19.565 -18.343  12.951  1.00  0.00    -0.393 OA
HETATM   28  H   UNL     1      18.875 -18.246  12.266  1.00  0.00     0.210 HD
ENDBRANCH  22  27
BRANCH  23  29
HETATM   29  O   UNL     1      16.881 -18.607  12.710  1.00  0.00    -0.377 OA
BRANCH  29  30
HETATM   30  C   UNL     1      15.552 -19.272  12.647  1.00  0.00     0.185 C 
BRANCH  30  31
HETATM   31  C   UNL     1      15.569 -20.778  12.066  1.00  0.00     0.039 C 
HETATM   32  C   UNL     1      16.896 -21.016  11.330  1.00  0.00     0.025 C 
BRANCH  31  33
HETATM   33  C   UNL     1      14.300 -21.090  11.103  1.00  0.00     0.036 C 
BRANCH  33  34
HETATM   34  C   UNL     1      14.164 -20.625   9.546  1.00  0.00     0.019 C 
HETATM   35  C   UNL     1      14.806 -19.211   9.543  1.00  0.00     0.023 C 
BRANCH  34  36
HETATM   36  C   UNL     1      12.591 -20.536   9.158  1.00  0.00     0.033 C 
BRANCH  36  37
HETATM   37  C   UNL     1      11.545 -21.755   8.827  1.00  0.00     0.019 C 
HETATM   38  C   UNL     1      11.580 -22.069   7.322  1.00  0.00     0.023 C 
BRANCH  37  39
HETATM   39  C   UNL     1      10.096 -21.191   9.218  1.00  0.00     0.033 C 
BRANCH  39  40
HETATM   40  C   UNL     1       9.134 -20.123   8.456  1.00  0.00     0.019 C 
HETATM   41  C   UNL     1      10.110 -19.228   7.645  1.00  0.00     0.023 C 
BRANCH  40  42
HETATM   42  C   UNL     1       8.030 -20.686   7.500  1.00  0.00     0.033 C 
BRANCH  42  43
HETATM   43  C   UNL     1       6.685 -21.391   7.927  1.00  0.00     0.014 C 
HETATM   44  C   UNL     1       5.539 -20.417   7.538  1.00  0.00     0.023 C 
HETATM   45  C   UNL     1       6.522 -21.589   9.446  1.00  0.00     0.023 C 
BRANCH  43  46
HETATM   46  C   UNL     1       6.493 -22.763   7.235  1.00  0.00     0.136 C 
HETATM   47  O   UNL     1       5.865 -22.836   6.174  1.00  0.00    -0.297 OA
BRANCH  46  48
HETATM   48  C   UNL     1       6.987 -24.043   7.903  1.00  0.00     0.109 C 
BRANCH  48  49
HETATM   49  C   UNL     1       8.464 -24.298   7.564  1.00  0.00     0.279 C 
BRANCH  49  50
HETATM   50  N   UNL     1       8.647 -24.936   6.244  1.00  0.00     0.080 N 
HETATM   51  C   UNL     1      10.057 -25.194   5.949  1.00  0.00     0.309 C 
HETATM   52  C   UNL     1       7.904 -26.201   6.187  1.00  0.00     0.309 C 
ENDBRANCH  49  50
ENDBRANCH  48  49
ENDBRANCH  46  48
ENDBRANCH  43  46
ENDBRANCH  42  43
ENDBRANCH  40  42
BRANCH  40  53
HETATM   53  C   UNL     1       8.523 -19.195   9.557  1.00  0.00     0.137 C 
HETATM   54  O   UNL     1       8.309 -18.005   9.351  1.00  0.00    -0.297 OA
BRANCH  53  55
HETATM   55  C   UNL     1       8.382 -19.744  10.962  1.00  0.00     0.109 C 
BRANCH  55  56
HETATM   56  C   UNL     1       9.101 -18.892  12.009  1.00  0.00     0.279 C 
BRANCH  56  57
HETATM   57  N   UNL     1       9.497 -19.753  13.144  1.00  0.00     0.080 N 
HETATM   58  C   UNL     1       8.510 -20.813  13.366  1.00  0.00     0.309 C 
HETATM   59  C   UNL     1      10.816 -20.341  12.935  1.00  0.00     0.309 C 
ENDBRANCH  56  57
ENDBRANCH  55  56
ENDBRANCH  53  55
ENDBRANCH  40  53
ENDBRANCH  39  40
ENDBRANCH  37  39
BRANCH  37  60
HETATM   60  C   UNL     1      11.759 -23.106   9.563  1.00  0.00     0.137 C 
HETATM   61  O   UNL     1      12.348 -24.029   8.989  1.00  0.00    -0.297 OA
BRANCH  60  62
HETATM   62  C   UNL     1      11.295 -23.325  10.982  1.00  0.00     0.109 C 
BRANCH  62  63
HETATM   63  C   UNL     1      10.211 -24.404  11.124  1.00  0.00     0.279 C 
BRANCH  63  64
HETATM   64  N   UNL     1      10.304 -25.105  12.423  1.00  0.00     0.080 N 
HETATM   65  C   UNL     1      11.423 -26.050  12.443  1.00  0.00     0.309 C 
HETATM   66  C   UNL     1      10.471 -24.133  13.508  1.00  0.00     0.309 C 
ENDBRANCH  63  64
ENDBRANCH  62  63
ENDBRANCH  60  62
ENDBRANCH  37  60
ENDBRANCH  36  37
ENDBRANCH  34  36
BRANCH  34  67
HETATM   67  C   UNL     1      14.846 -21.486   8.441  1.00  0.00     0.137 C 
HETATM   68  O   UNL     1      15.210 -22.632   8.729  1.00  0.00    -0.297 OA
BRANCH  67  69
HETATM   69  C   UNL     1      15.109 -20.953   7.025  1.00  0.00     0.109 C 
BRANCH  69  70
HETATM   70  C   UNL     1      16.357 -21.592   6.367  1.00  0.00     0.279 C 
BRANCH  70  71
HETATM   71  N   UNL     1      17.702 -21.274   6.890  1.00  0.00     0.080 N 
HETATM   72  C   UNL     1      18.463 -22.453   7.268  1.00  0.00     0.309 C 
HETATM   73  C   UNL     1      18.461 -20.546   5.861  1.00  0.00     0.309 C 
ENDBRANCH  70  71
ENDBRANCH  69  70
ENDBRANCH  67  69
ENDBRANCH  34  67
ENDBRANCH  33  34
ENDBRANCH  31  33
BRANCH  31  74
HETATM   74  C   UNL     1      15.370 -21.648  13.333  1.00  0.00     0.139 C 
HETATM   75  O   UNL     1      15.201 -22.871  13.236  1.00  0.00    -0.297 OA
BRANCH  74  76
HETATM   76  C   UNL     1      15.234 -21.013  14.700  1.00  0.00     0.109 C 
BRANCH  76  77
HETATM   77  C   UNL     1      16.087 -21.782  15.692  1.00  0.00     0.279 C 
BRANCH  77  78
HETATM   78  N   UNL     1      15.426 -22.077  16.972  1.00  0.00     0.080 N 
HETATM   79  C   UNL     1      16.141 -21.466  18.093  1.00  0.00     0.309 C 
HETATM   80  C   UNL     1      15.350 -23.529  17.170  1.00  0.00     0.309 C 
ENDBRANCH  77  78
ENDBRANCH  76  77
ENDBRANCH  74  76
ENDBRANCH  31  74
ENDBRANCH  30  31
ENDBRANCH  29  30
ENDBRANCH  23  29
ENDBRANCH  17  18
ENDBRANCH  11  17
BRANCH  12  81
HETATM   81  O   UNL     1      15.300 -13.531  14.409  1.00  0.00    -0.390 OA
HETATM   82  H   UNL     1      15.993 -13.877  13.810  1.00  0.00     0.210 HD
ENDBRANCH  12  81
BRANCH  13  83
HETATM   83  O   UNL     1      12.608 -12.958  15.264  1.00  0.00    -0.388 OA
HETATM   84  H   UNL     1      13.178 -12.259  15.623  1.00  0.00     0.210 HD
ENDBRANCH  13  83
ENDBRANCH   7   8
ENDBRANCH   1   7
BRANCH   2  85
HETATM   85  C   UNL     1      14.689 -10.073  16.529  1.00  0.00     0.198 C 
BRANCH  85  86
HETATM   86  O   UNL     1      14.670 -10.821  15.322  1.00  0.00    -0.398 OA
HETATM   87  H   UNL     1      13.753 -10.853  14.997  1.00  0.00     0.209 HD
ENDBRANCH  85  86
ENDBRANCH   2  85
BRANCH   3  88
HETATM   88  O   UNL     1      15.465 -13.134  19.770  1.00  0.00    -0.390 OA
HETATM   89  H   UNL     1      15.601 -14.095  19.902  1.00  0.00     0.210 HD
ENDBRANCH   3  88
BRANCH   4  90
HETATM   90  O   UNL     1      18.159 -12.097  19.518  1.00  0.00    -0.388 OA
HETATM   91  H   UNL     1      18.075 -13.040  19.730  1.00  0.00     0.210 HD
ENDBRANCH   4  90
BRANCH   5  92
HETATM   92  O   UNL     1      16.754  -9.947  20.343  1.00  0.00    -0.348 OA
BRANCH  92  93
HETATM   93  C   UNL     1      16.640  -8.530  20.665  1.00  0.00     0.187 C 
HETATM   94  C   UNL     1      15.335  -8.256  21.434  1.00  0.00     0.180 C 
HETATM   95  O   UNL     1      15.551  -7.621  22.693  1.00  0.00    -0.348 OA
HETATM   96  C   UNL     1      16.439  -6.507  22.726  1.00  0.00     0.292 C 
HETATM   97  C   UNL     1      17.907  -6.769  22.166  1.00  0.00     0.208 C 
HETATM   98  C   UNL     1      17.879  -8.201  21.554  1.00  0.00     0.183 C 
BRANCH  94  99
HETATM   99  C   UNL     1      14.308  -7.440  20.635  1.00  0.00     0.198 C 
BRANCH  99 100
HETATM  100  O   UNL     1      13.312  -8.299  20.082  1.00  0.00    -0.398 OA
HETATM  101  H   UNL     1      12.817  -7.787  19.411  1.00  0.00     0.209 HD
ENDBRANCH  99 100
ENDBRANCH  94  99
BRANCH  96 102
HETATM  102  O   UNL     1      16.496  -6.171  24.111  1.00  0.00    -0.348 OA
BRANCH 102 103
HETATM  103  C   UNL     1      15.639  -6.921  24.960  1.00  0.00     0.187 C 
HETATM  104  C   UNL     1      16.457  -7.575  26.092  1.00  0.00     0.176 C 
HETATM  105  O   UNL     1      15.706  -7.681  27.326  1.00  0.00    -0.378 OA
HETATM  106  C   UNL     1      14.315  -7.949  27.126  1.00  0.00     0.202 C 
HETATM  107  C   UNL     1      13.602  -6.773  26.421  1.00  0.00     0.173 C 
HETATM  108  C   UNL     1      14.603  -5.959  25.571  1.00  0.00     0.180 C 
BRANCH 104 109
HETATM  109  C   UNL     1      16.999  -8.960  25.720  1.00  0.00     0.198 C 
BRANCH 109 110
HETATM  110  O   UNL     1      16.182  -9.546  24.707  1.00  0.00    -0.398 OA
HETATM  111  H   UNL     1      15.700  -8.810  24.284  1.00  0.00     0.209 HD
ENDBRANCH 109 110
ENDBRANCH 104 109
BRANCH 107 112
HETATM  112  O   UNL     1      12.897  -5.904  27.382  1.00  0.00    -0.391 OA
HETATM  113  H   UNL     1      13.515  -5.247  27.739  1.00  0.00     0.210 HD
ENDBRANCH 107 112
BRANCH 108 114
HETATM  114  O   UNL     1      15.222  -4.938  26.378  1.00  0.00    -0.390 OA
HETATM  115  H   UNL     1      14.846  -5.002  27.275  1.00  0.00     0.210 HD
ENDBRANCH 108 114
ENDBRANCH 102 103
ENDBRANCH  96 102
BRANCH  97 116
HETATM  116  O   UNL     1      18.923  -6.556  23.257  1.00  0.00    -0.369 OA
BRANCH 116 117
HETATM  117  C   UNL     1      19.871  -5.440  23.378  1.00  0.00     0.168 C 
BRANCH 117 118
HETATM  118  C   UNL     1      20.899  -5.341  24.607  1.00  0.00     0.046 C 
HETATM  119  C   UNL     1      20.430  -6.399  25.620  1.00  0.00     0.026 C 
BRANCH 118 120
HETATM  120  C   UNL     1      21.185  -3.912  25.365  1.00  0.00     0.036 C 
BRANCH 120 121
HETATM  121  C   UNL     1      21.118  -2.438  24.596  1.00  0.00     0.019 C 
HETATM  122  C   UNL     1      21.909  -1.549  25.594  1.00  0.00     0.023 C 
BRANCH 121 123
HETATM  123  C   UNL     1      21.753  -2.317  23.176  1.00  0.00     0.137 C 
HETATM  124  O   UNL     1      20.996  -2.296  22.198  1.00  0.00    -0.297 OA
BRANCH 123 125
HETATM  125  C   UNL     1      23.277  -2.253  22.960  1.00  0.00     0.109 C 
BRANCH 125 126
HETATM  126  C   UNL     1      23.699  -2.581  21.509  1.00  0.00     0.279 C 
BRANCH 126 127
HETATM  127  N   UNL     1      25.081  -3.019  21.230  1.00  0.00     0.080 N 
HETATM  128  C   UNL     1      25.594  -3.759  22.391  1.00  0.00     0.309 C 
HETATM  129  C   UNL     1      25.988  -1.920  20.951  1.00  0.00     0.309 C 
ENDBRANCH 126 127
ENDBRANCH 125 126
ENDBRANCH 123 125
ENDBRANCH 121 123
BRANCH 121 130
HETATM  130  C   UNL     1      19.594  -1.853  24.416  1.00  0.00     0.033 C 
BRANCH 130 131
HETATM  131  C   UNL     1      19.078  -0.276  24.626  1.00  0.00     0.019 C 
HETATM  132  C   UNL     1      18.150   0.101  23.458  1.00  0.00     0.023 C 
BRANCH 131 133
HETATM  133  C   UNL     1      18.312   0.084  25.932  1.00  0.00     0.137 C 
HETATM  134  O   UNL     1      18.846  -0.115  27.030  1.00  0.00    -0.297 OA
BRANCH 133 135
HETATM  135  C   UNL     1      16.929   0.688  25.910  1.00  0.00     0.109 C 
BRANCH 135 136
HETATM  136  C   UNL     1      16.707   1.820  26.928  1.00  0.00     0.279 C 
BRANCH 136 137
HETATM  137  N   UNL     1      15.583   1.528  27.844  1.00  0.00     0.080 N 
HETATM  138  C   UNL     1      16.077   0.877  29.062  1.00  0.00     0.309 C 
HETATM  139  C   UNL     1      14.581   0.668  27.210  1.00  0.00     0.309 C 
ENDBRANCH 136 137
ENDBRANCH 135 136
ENDBRANCH 133 135
ENDBRANCH 131 133
BRANCH 131 140
HETATM  140  C   UNL     1      20.384   0.660  24.573  1.00  0.00     0.033 C 
BRANCH 140 141
HETATM  141  C   UNL     1      20.579   2.188  23.997  1.00  0.00     0.019 C 
HETATM  142  C   UNL     1      22.015   2.589  24.434  1.00  0.00     0.023 C 
BRANCH 141 143
HETATM  143  C   UNL     1      20.426   2.439  22.452  1.00  0.00     0.033 C 
BRANCH 143 144
HETATM  144  C   UNL     1      21.529   2.211  21.341  1.00  0.00     0.014 C 
HETATM  145  C   UNL     1      20.776   1.734  20.067  1.00  0.00     0.023 C 
HETATM  146  C   UNL     1      22.522   1.070  21.644  1.00  0.00     0.023 C 
BRANCH 144 147
HETATM  147  C   UNL     1      22.349   3.492  21.036  1.00  0.00     0.136 C 
HETATM  148  O   UNL     1      23.461   3.400  20.507  1.00  0.00    -0.297 OA
BRANCH 147 149
HETATM  149  C   UNL     1      21.838   4.864  21.470  1.00  0.00     0.109 C 
BRANCH 149 150
HETATM  150  C   UNL     1      21.383   5.691  20.256  1.00  0.00     0.279 C 
BRANCH 150 151
HETATM  151  N   UNL     1      22.206   6.902  20.046  1.00  0.00     0.080 N 
HETATM  152  C   UNL     1      23.163   6.734  18.951  1.00  0.00     0.309 C 
HETATM  153  C   UNL     1      21.346   8.056  19.761  1.00  0.00     0.309 C 
ENDBRANCH 150 151
ENDBRANCH 149 150
ENDBRANCH 147 149
ENDBRANCH 144 147
ENDBRANCH 143 144
ENDBRANCH 141 143
BRANCH 141 154
HETATM  154  C   UNL     1      19.614   3.111  24.809  1.00  0.00     0.137 C 
HETATM  155  O   UNL     1      19.733   3.256  26.030  1.00  0.00    -0.297 OA
BRANCH 154 156
HETATM  156  C   UNL     1      18.398   3.678  24.110  1.00  0.00     0.109 C 
BRANCH 156 157
HETATM  157  C   UNL     1      18.007   5.072  24.607  1.00  0.00     0.279 C 
BRANCH 157 158
HETATM  158  N   UNL     1      17.646   5.914  23.446  1.00  0.00     0.080 N 
HETATM  159  C   UNL     1      17.994   5.268  22.184  1.00  0.00     0.309 C 
HETATM  160  C   UNL     1      18.293   7.225  23.528  1.00  0.00     0.309 C 
ENDBRANCH 157 158
ENDBRANCH 156 157
ENDBRANCH 154 156
ENDBRANCH 141 154
ENDBRANCH 140 141
ENDBRANCH 131 140
ENDBRANCH 130 131
ENDBRANCH 121 130
ENDBRANCH 120 121
ENDBRANCH 118 120
BRANCH 118 161
HETATM  161  C   UNL     1      22.221  -5.649  23.848  1.00  0.00     0.139 C 
HETATM  162  O   UNL     1      23.322  -5.576  24.411  1.00  0.00    -0.297 OA
BRANCH 161 163
HETATM  163  C   UNL     1      22.197  -5.924  22.365  1.00  0.00     0.109 C 
BRANCH 163 164
HETATM  164  C   UNL     1      23.363  -6.816  22.002  1.00  0.00     0.279 C 
BRANCH 164 165
HETATM  165  N   UNL     1      23.013  -8.197  21.640  1.00  0.00     0.080 N 
HETATM  166  C   UNL     1      21.603  -8.302  21.263  1.00  0.00     0.309 C 
HETATM  167  C   UNL     1      23.264  -9.079  22.785  1.00  0.00     0.309 C 
ENDBRANCH 164 165
ENDBRANCH 163 164
ENDBRANCH 161 163
ENDBRANCH 118 161
ENDBRANCH 117 118
ENDBRANCH 116 117
ENDBRANCH  97 116
BRANCH  98 168
HETATM  168  O   UNL     1      17.946  -9.171  22.621  1.00  0.00    -0.390 OA
HETATM  169  H   UNL     1      18.246 -10.008  22.213  1.00  0.00     0.210 HD
ENDBRANCH  98 168
ENDBRANCH  92  93
ENDBRANCH   5  92
TORSDOF 88
ENDMDL
MODEL 3
REMARK VINA RESULT:      -5.2      7.479     22.645
REMARK WARNING: 32 MAX_TORS EXCEEDED!!!
REMARK  88 active torsions:
REMARK  status: ('A' for Active; 'I' for Inactive)
REMARK    1  A    between atoms: C_1  and  O_28 
REMARK    2  A    between atoms: C_2  and  C_6 
REMARK    3  A    between atoms: C_3  and  O_8 
REMARK    4  A    between atoms: C_4  and  O_10 
REMARK    5  A    between atoms: C_5  and  O_11 
REMARK    6  A    between atoms: C_6  and  O_58 
REMARK    7  A    between atoms: O_11  and  C_18 
REMARK    8  A    between atoms: O_13  and  C_16 
REMARK    9  A    between atoms: C_15  and  C_21 
REMARK   10  A    between atoms: O_17  and  C_20 
REMARK   11  A    between atoms: O_17  and  C_39 
REMARK   12  A    between atoms: O_19  and  C_22 
REMARK   13  A    between atoms: O_19  and  C_153 
REMARK   14  A    between atoms: C_21  and  O_60 
REMARK   15  A    between atoms: O_24  and  C_27 
REMARK   16  A    between atoms: C_26  and  C_32 
REMARK   17  A    between atoms: O_28  and  C_31 
REMARK   18  A    between atoms: C_29  and  O_49 
REMARK   19  A    between atoms: O_30  and  C_33 
REMARK   20  A    between atoms: C_32  and  O_56 
REMARK   21  A    between atoms: O_35  and  C_38 
REMARK   22  A    between atoms: C_37  and  C_42 
REMARK   23  A    between atoms: O_40  and  C_43 
REMARK   24  A    between atoms: C_42  and  O_62 
REMARK   25  A    between atoms: O_45  and  C_48 
REMARK   26  A    between atoms: C_47  and  C_53 
REMARK   27  A    between atoms: O_49  and  C_52 
REMARK   28  A    between atoms: O_51  and  C_54 
REMARK   29  A    between atoms: O_51  and  C_64 
REMARK   30  A    between atoms: C_53  and  O_55 
REMARK   31  A    between atoms: C_64  and  C_65 
REMARK   32  A    between atoms: C_65  and  C_66 
REMARK   33  A    between atoms: C_65  and  C_75 
REMARK   34  A    between atoms: C_66  and  C_67 
REMARK   35  A    between atoms: C_67  and  C_68 
REMARK   36  A    between atoms: C_67  and  C_79 
REMARK   37  A    between atoms: C_68  and  C_69 
REMARK   38  A    between atoms: C_69  and  C_70 
REMARK   39  A    between atoms: C_69  and  C_83 
REMARK   40  A    between atoms: C_70  and  C_71 
REMARK   41  A    between atoms: C_71  and  C_72 
REMARK   42  A    between atoms: C_71  and  C_87 
REMARK   43  A    between atoms: C_72  and  C_73 
REMARK   44  A    between atoms: C_73  and  C_91 
REMARK   45  A    between atoms: C_75  and  C_76 
REMARK   46  A    between atoms: C_76  and  C_77 
REMARK   47  A    between atoms: C_77  and  N_95 
REMARK   48  A    between atoms: C_79  and  C_80 
REMARK   49  A    between atoms: C_80  and  C_81 
REMARK   50  A    between atoms: C_81  and  N_96 
REMARK   51  A    between atoms: C_83  and  C_84 
REMARK   52  A    between atoms: C_84  and  C_85 
REMARK   53  A    between atoms: C_85  and  N_97 
REMARK   54  A    between atoms: C_87  and  C_88 
REMARK   55  A    between atoms: C_88  and  C_89 
REMARK   56  A    between atoms: C_89  and  N_98 
REMARK   57  A    between atoms: C_91  and  C_92 
REMARK   58  A    between atoms: C_92  and  C_93 
REMARK   59  A    between atoms: C_93  and  N_99 
REMARK   60  A    between atoms: N_118  and  C_121 
REMARK   61  A    between atoms: C_121  and  C_127 
REMARK   62  A    between atoms: C_122  and  C_127 
REMARK   63  A    between atoms: C_122  and  C_134 
REMARK   64  A    between atoms: N_124  and  C_131 
REMARK   65  A    between atoms: C_128  and  C_129 
REMARK   66  A    between atoms: C_128  and  C_138 
REMARK   67  A    between atoms: C_129  and  C_131 
REMARK   68  A    between atoms: N_133  and  C_144 
REMARK   69  A    between atoms: C_134  and  C_145 
REMARK   70  A    between atoms: C_134  and  C_151 
REMARK   71  A    between atoms: C_136  and  C_144 
REMARK   72  A    between atoms: C_136  and  C_148 
REMARK   73  A    between atoms: C_138  and  C_154 
REMARK   74  A    between atoms: C_138  and  C_145 
REMARK   75  A    between atoms: C_140  and  C_148 
REMARK   76  A    between atoms: C_140  and  C_141 
REMARK   77  A    between atoms: C_141  and  C_155 
REMARK   78  A    between atoms: C_142  and  C_153 
REMARK   79  A    between atoms: C_142  and  C_151 
REMARK   80  A    between atoms: C_142  and  C_152 
REMARK   81  A    between atoms: C_143  and  N_149 
REMARK   82  A    between atoms: C_143  and  C_146 
REMARK   83  A    between atoms: C_146  and  C_152 
REMARK   84  A    between atoms: C_154  and  C_155 
REMARK   85  A    between atoms: C_155  and  C_161 
REMARK   86  A    between atoms: C_158  and  C_163 
REMARK   87  A    between atoms: C_158  and  C_161 
REMARK   88  A    between atoms: N_159  and  C_163 
ROOT
HETATM    1  C   UNL     1      14.885 -12.637  17.208  1.00  0.00     0.187 C 
HETATM    2  C   UNL     1      14.490 -11.204  17.630  1.00  0.00     0.180 C 
HETATM    3  C   UNL     1      16.075 -13.148  18.047  1.00  0.00     0.183 C 
HETATM    4  C   UNL     1      17.181 -12.073  18.183  1.00  0.00     0.204 C 
HETATM    5  C   UNL     1      16.592 -10.735  18.752  1.00  0.00     0.292 C 
HETATM    6  O   UNL     1      15.164 -10.792  18.834  1.00  0.00    -0.348 OA
ENDROOT
BRANCH   1   7
HETATM    7  O   UNL     1      13.755 -13.495  17.418  1.00  0.00    -0.348 OA
BRANCH   7   8
HETATM    8  C   UNL     1      13.764 -14.711  16.655  1.00  0.00     0.292 C 
HETATM    9  O   UNL     1      15.080 -15.247  16.762  1.00  0.00    -0.348 OA
HETATM   10  C   UNL     1      15.423 -16.318  15.869  1.00  0.00     0.180 C 
HETATM   11  C   UNL     1      14.912 -16.149  14.423  1.00  0.00     0.187 C 
HETATM   12  C   UNL     1      14.385 -14.742  14.166  1.00  0.00     0.183 C 
HETATM   13  C   UNL     1      13.293 -14.418  15.189  1.00  0.00     0.204 C 
BRANCH  10  14
HETATM   14  C   UNL     1      14.954 -17.641  16.495  1.00  0.00     0.198 C 
BRANCH  14  15
HETATM   15  O   UNL     1      14.567 -18.566  15.479  1.00  0.00    -0.398 OA
HETATM   16  H   UNL     1      13.764 -19.019  15.803  1.00  0.00     0.209 HD
ENDBRANCH  14  15
ENDBRANCH  10  14
BRANCH  11  17
HETATM   17  O   UNL     1      15.995 -16.358  13.503  1.00  0.00    -0.348 OA
BRANCH  17  18
HETATM   18  C   UNL     1      17.215 -16.723  14.140  1.00  0.00     0.292 C 
HETATM   19  O   UNL     1      18.250 -15.836  13.698  1.00  0.00    -0.351 OA
HETATM   20  C   UNL     1      19.386 -15.835  14.585  1.00  0.00     0.150 C 
HETATM   21  C   UNL     1      19.621 -17.238  15.177  1.00  0.00     0.068 C 
HETATM   22  C   UNL     1      19.165 -18.305  14.169  1.00  0.00     0.154 C 
HETATM   23  C   UNL     1      17.631 -18.225  13.866  1.00  0.00     0.205 C 
BRANCH  20  24
HETATM   24  C   UNL     1      19.272 -14.702  15.616  1.00  0.00     0.196 C 
BRANCH  24  25
HETATM   25  O   UNL     1      18.391 -13.674  15.172  1.00  0.00    -0.398 OA
HETATM   26  H   UNL     1      17.710 -14.058  14.597  1.00  0.00     0.209 HD
ENDBRANCH  24  25
ENDBRANCH  20  24
BRANCH  22  27
HETATM   27  O   UNL     1      19.918 -18.093  12.963  1.00  0.00    -0.393 OA
HETATM   28  H   UNL     1      20.830 -17.857  13.226  1.00  0.00     0.210 HD
ENDBRANCH  22  27
BRANCH  23  29
HETATM   29  O   UNL     1      17.322 -18.686  12.475  1.00  0.00    -0.377 OA
BRANCH  29  30
HETATM   30  C   UNL     1      17.351 -20.148  12.199  1.00  0.00     0.185 C 
BRANCH  30  31
HETATM   31  C   UNL     1      15.998 -20.749  11.555  1.00  0.00     0.039 C 
HETATM   32  C   UNL     1      14.788 -20.039  12.182  1.00  0.00     0.025 C 
BRANCH  31  33
HETATM   33  C   UNL     1      15.886 -22.359  11.727  1.00  0.00     0.036 C 
BRANCH  33  34
HETATM   34  C   UNL     1      14.498 -23.213  11.713  1.00  0.00     0.019 C 
HETATM   35  C   UNL     1      14.945 -24.604  11.187  1.00  0.00     0.023 C 
BRANCH  34  36
HETATM   36  C   UNL     1      13.462 -22.520  10.674  1.00  0.00     0.033 C 
BRANCH  36  37
HETATM   37  C   UNL     1      11.874 -22.852  10.433  1.00  0.00     0.019 C 
HETATM   38  C   UNL     1      11.655 -24.373  10.473  1.00  0.00     0.023 C 
BRANCH  37  39
HETATM   39  C   UNL     1      11.544 -22.307   8.961  1.00  0.00     0.033 C 
BRANCH  39  40
HETATM   40  C   UNL     1      10.435 -22.793   7.875  1.00  0.00     0.019 C 
HETATM   41  C   UNL     1      10.330 -21.613   6.871  1.00  0.00     0.023 C 
BRANCH  40  42
HETATM   42  C   UNL     1      10.714 -24.119   7.090  1.00  0.00     0.033 C 
BRANCH  42  43
HETATM   43  C   UNL     1      11.927 -24.404   6.123  1.00  0.00     0.014 C 
HETATM   44  C   UNL     1      11.513 -23.854   4.730  1.00  0.00     0.023 C 
HETATM   45  C   UNL     1      12.209 -25.899   5.877  1.00  0.00     0.023 C 
BRANCH  43  46
HETATM   46  C   UNL     1      13.236 -23.736   6.608  1.00  0.00     0.136 C 
HETATM   47  O   UNL     1      13.574 -22.639   6.152  1.00  0.00    -0.297 OA
BRANCH  46  48
HETATM   48  C   UNL     1      14.168 -24.466   7.571  1.00  0.00     0.109 C 
BRANCH  48  49
HETATM   49  C   UNL     1      15.526 -24.745   6.908  1.00  0.00     0.279 C 
BRANCH  49  50
HETATM   50  N   UNL     1      16.340 -25.723   7.661  1.00  0.00     0.080 N 
HETATM   51  C   UNL     1      15.543 -26.859   8.125  1.00  0.00     0.309 C 
HETATM   52  C   UNL     1      17.441 -26.216   6.825  1.00  0.00     0.309 C 
ENDBRANCH  49  50
ENDBRANCH  48  49
ENDBRANCH  46  48
ENDBRANCH  43  46
ENDBRANCH  42  43
ENDBRANCH  40  42
BRANCH  40  53
HETATM   53  C   UNL     1       9.060 -22.842   8.618  1.00  0.00     0.137 C 
HETATM   54  O   UNL     1       8.525 -23.905   8.915  1.00  0.00    -0.297 OA
BRANCH  53  55
HETATM   55  C   UNL     1       8.291 -21.548   8.790  1.00  0.00     0.109 C 
BRANCH  55  56
HETATM   56  C   UNL     1       7.174 -21.653   9.829  1.00  0.00     0.279 C 
BRANCH  56  57
HETATM   57  N   UNL     1       5.881 -21.350   9.180  1.00  0.00     0.080 N 
HETATM   58  C   UNL     1       6.083 -20.636   7.917  1.00  0.00     0.309 C 
HETATM   59  C   UNL     1       5.102 -22.562   8.947  1.00  0.00     0.309 C 
ENDBRANCH  56  57
ENDBRANCH  55  56
ENDBRANCH  53  55
ENDBRANCH  40  53
ENDBRANCH  39  40
ENDBRANCH  37  39
BRANCH  37  60
HETATM   60  C   UNL     1      10.851 -22.234  11.424  1.00  0.00     0.137 C 
HETATM   61  O   UNL     1      10.165 -22.975  12.137  1.00  0.00    -0.297 OA
BRANCH  60  62
HETATM   62  C   UNL     1      10.684 -20.741  11.573  1.00  0.00     0.109 C 
BRANCH  62  63
HETATM   63  C   UNL     1      10.414 -20.285  13.014  1.00  0.00     0.279 C 
BRANCH  63  64
HETATM   64  N   UNL     1       9.134 -19.553  13.126  1.00  0.00     0.080 N 
HETATM   65  C   UNL     1       8.839 -18.800  11.904  1.00  0.00     0.309 C 
HETATM   66  C   UNL     1       8.039 -20.492  13.392  1.00  0.00     0.309 C 
ENDBRANCH  63  64
ENDBRANCH  62  63
ENDBRANCH  60  62
ENDBRANCH  37  60
ENDBRANCH  36  37
ENDBRANCH  34  36
BRANCH  34  67
HETATM   67  C   UNL     1      13.721 -23.410  13.050  1.00  0.00     0.137 C 
HETATM   68  O   UNL     1      13.371 -24.554  13.363  1.00  0.00    -0.297 OA
BRANCH  67  69
HETATM   69  C   UNL     1      13.350 -22.237  13.968  1.00  0.00     0.109 C 
BRANCH  69  70
HETATM   70  C   UNL     1      14.149 -22.239  15.294  1.00  0.00     0.279 C 
BRANCH  70  71
HETATM   71  N   UNL     1      15.548 -22.714  15.303  1.00  0.00     0.080 N 
HETATM   72  C   UNL     1      16.516 -21.642  15.465  1.00  0.00     0.309 C 
HETATM   73  C   UNL     1      15.728 -23.667  16.408  1.00  0.00     0.309 C 
ENDBRANCH  70  71
ENDBRANCH  69  70
ENDBRANCH  67  69
ENDBRANCH  34  67
ENDBRANCH  33  34
ENDBRANCH  31  33
BRANCH  31  74
HETATM   74  C   UNL     1      16.182 -20.490  10.039  1.00  0.00     0.139 C 
HETATM   75  O   UNL     1      15.757 -19.448   9.523  1.00  0.00    -0.297 OA
BRANCH  74  76
HETATM   76  C   UNL     1      16.752 -21.557   9.130  1.00  0.00     0.109 C 
BRANCH  76  77
HETATM   77  C   UNL     1      16.622 -21.104   7.688  1.00  0.00     0.279 C 
BRANCH  77  78
HETATM   78  N   UNL     1      17.567 -21.736   6.756  1.00  0.00     0.080 N 
HETATM   79  C   UNL     1      18.493 -22.624   7.459  1.00  0.00     0.309 C 
HETATM   80  C   UNL     1      18.323 -20.704   6.038  1.00  0.00     0.309 C 
ENDBRANCH  77  78
ENDBRANCH  76  77
ENDBRANCH  74  76
ENDBRANCH  31  74
ENDBRANCH  30  31
ENDBRANCH  29  30
ENDBRANCH  23  29
ENDBRANCH  17  18
ENDBRANCH  11  17
BRANCH  12  81
HETATM   81  O   UNL     1      15.452 -13.785  14.211  1.00  0.00    -0.390 OA
HETATM   82  H   UNL     1      15.446 -13.444  15.130  1.00  0.00     0.210 HD
ENDBRANCH  12  81
BRANCH  13  83
HETATM   83  O   UNL     1      12.760 -13.062  14.942  1.00  0.00    -0.388 OA
HETATM   84  H   UNL     1      12.519 -12.650  15.786  1.00  0.00     0.210 HD
ENDBRANCH  13  83
ENDBRANCH   7   8
ENDBRANCH   1   7
BRANCH   2  85
HETATM   85  C   UNL     1      14.694 -10.212  16.469  1.00  0.00     0.198 C 
BRANCH  85  86
HETATM   86  O   UNL     1      14.671 -10.868  15.209  1.00  0.00    -0.398 OA
HETATM   87  H   UNL     1      13.744 -11.056  14.980  1.00  0.00     0.209 HD
ENDBRANCH  85  86
ENDBRANCH   2  85
BRANCH   3  88
HETATM   88  O   UNL     1      15.638 -13.573  19.348  1.00  0.00    -0.390 OA
HETATM   89  H   UNL     1      15.166 -14.423  19.225  1.00  0.00     0.210 HD
ENDBRANCH   3  88
BRANCH   4  90
HETATM   90  O   UNL     1      18.333 -12.580  18.964  1.00  0.00    -0.388 OA
HETATM   91  H   UNL     1      18.025 -13.246  19.599  1.00  0.00     0.210 HD
ENDBRANCH   4  90
BRANCH   5  92
HETATM   92  O   UNL     1      17.066 -10.482  20.091  1.00  0.00    -0.348 OA
BRANCH  92  93
HETATM   93  C   UNL     1      17.341  -9.092  20.432  1.00  0.00     0.187 C 
HETATM   94  C   UNL     1      16.128  -8.461  21.139  1.00  0.00     0.180 C 
HETATM   95  O   UNL     1      16.447  -7.917  22.419  1.00  0.00    -0.348 OA
HETATM   96  C   UNL     1      17.612  -7.100  22.516  1.00  0.00     0.292 C 
HETATM   97  C   UNL     1      18.973  -7.768  22.027  1.00  0.00     0.208 C 
HETATM   98  C   UNL     1      18.573  -9.130  21.389  1.00  0.00     0.183 C 
BRANCH  94  99
HETATM   99  C   UNL     1      15.419  -7.384  20.304  1.00  0.00     0.198 C 
BRANCH  99 100
HETATM  100  O   UNL     1      16.297  -6.875  19.301  1.00  0.00    -0.398 OA
HETATM  101  H   UNL     1      15.746  -6.559  18.557  1.00  0.00     0.209 HD
ENDBRANCH  99 100
ENDBRANCH  94  99
BRANCH  96 102
HETATM  102  O   UNL     1      17.686  -6.798  23.908  1.00  0.00    -0.348 OA
BRANCH 102 103
HETATM  103  C   UNL     1      16.583  -7.230  24.690  1.00  0.00     0.187 C 
HETATM  104  C   UNL     1      17.081  -8.023  25.916  1.00  0.00     0.176 C 
HETATM  105  O   UNL     1      16.228  -7.846  27.072  1.00  0.00    -0.378 OA
HETATM  106  C   UNL     1      14.840  -7.724  26.745  1.00  0.00     0.202 C 
HETATM  107  C   UNL     1      14.554  -6.437  25.939  1.00  0.00     0.173 C 
HETATM  108  C   UNL     1      15.814  -5.984  25.169  1.00  0.00     0.180 C 
BRANCH 104 109
HETATM  109  C   UNL     1      17.238  -9.523  25.639  1.00  0.00     0.198 C 
BRANCH 109 110
HETATM  110  O   UNL     1      16.479  -9.887  24.487  1.00  0.00    -0.398 OA
HETATM  111  H   UNL     1      15.607  -9.457  24.586  1.00  0.00     0.209 HD
ENDBRANCH 109 110
ENDBRANCH 104 109
BRANCH 107 112
HETATM  112  O   UNL     1      14.045  -5.353  26.801  1.00  0.00    -0.391 OA
HETATM  113  H   UNL     1      14.531  -5.351  27.640  1.00  0.00     0.210 HD
ENDBRANCH 107 112
BRANCH 108 114
HETATM  114  O   UNL     1      16.626  -5.134  26.003  1.00  0.00    -0.390 OA
HETATM  115  H   UNL     1      17.194  -5.710  26.546  1.00  0.00     0.210 HD
ENDBRANCH 108 114
ENDBRANCH 102 103
ENDBRANCH  96 102
BRANCH  97 116
HETATM  116  O   UNL     1      19.947  -7.854  23.171  1.00  0.00    -0.369 OA
BRANCH 116 117
HETATM  117  C   UNL     1      21.216  -8.594  23.201  1.00  0.00     0.168 C 
BRANCH 117 118
HETATM  118  C   UNL     1      22.542  -8.019  22.502  1.00  0.00     0.046 C 
HETATM  119  C   UNL     1      22.209  -7.930  21.004  1.00  0.00     0.026 C 
BRANCH 118 120
HETATM  120  C   UNL     1      24.001  -8.739  22.722  1.00  0.00     0.036 C 
BRANCH 120 121
HETATM  121  C   UNL     1      24.182 -10.266  23.358  1.00  0.00     0.019 C 
HETATM  122  C   UNL     1      25.730 -10.398  23.371  1.00  0.00     0.023 C 
BRANCH 121 123
HETATM  123  C   UNL     1      23.626 -10.539  24.790  1.00  0.00     0.137 C 
HETATM  124  O   UNL     1      23.804  -9.678  25.660  1.00  0.00    -0.297 OA
BRANCH 123 125
HETATM  125  C   UNL     1      22.896 -11.847  25.152  1.00  0.00     0.109 C 
BRANCH 125 126
HETATM  126  C   UNL     1      21.385 -11.648  25.410  1.00  0.00     0.279 C 
BRANCH 126 127
HETATM  127  N   UNL     1      20.887 -11.542  26.797  1.00  0.00     0.080 N 
HETATM  128  C   UNL     1      21.908 -12.065  27.715  1.00  0.00     0.309 C 
HETATM  129  C   UNL     1      19.652 -12.273  27.021  1.00  0.00     0.309 C 
ENDBRANCH 126 127
ENDBRANCH 125 126
ENDBRANCH 123 125
ENDBRANCH 121 123
BRANCH 121 130
HETATM  130  C   UNL     1      23.529 -11.453  22.430  1.00  0.00     0.033 C 
BRANCH 130 131
HETATM  131  C   UNL     1      23.820 -11.756  20.811  1.00  0.00     0.019 C 
HETATM  132  C   UNL     1      22.553 -11.414  20.009  1.00  0.00     0.023 C 
BRANCH 131 133
HETATM  133  C   UNL     1      24.996 -11.009  20.118  1.00  0.00     0.137 C 
HETATM  134  O   UNL     1      26.155 -11.415  20.273  1.00  0.00    -0.297 OA
BRANCH 133 135
HETATM  135  C   UNL     1      24.774  -9.802  19.240  1.00  0.00     0.109 C 
BRANCH 135 136
HETATM  136  C   UNL     1      26.003  -8.890  19.081  1.00  0.00     0.279 C 
BRANCH 136 137
HETATM  137  N   UNL     1      26.012  -7.796  20.078  1.00  0.00     0.080 N 
HETATM  138  C   UNL     1      25.812  -6.504  19.414  1.00  0.00     0.309 C 
HETATM  139  C   UNL     1      27.269  -7.764  20.829  1.00  0.00     0.309 C 
ENDBRANCH 136 137
ENDBRANCH 135 136
ENDBRANCH 133 135
ENDBRANCH 131 133
BRANCH 131 140
HETATM  140  C   UNL     1      24.114 -13.331  20.670  1.00  0.00     0.033 C 
BRANCH 140 141
HETATM  141  C   UNL     1      23.276 -14.506  19.880  1.00  0.00     0.019 C 
HETATM  142  C   UNL     1      24.180 -15.765  19.983  1.00  0.00     0.023 C 
BRANCH 141 143
HETATM  143  C   UNL     1      21.831 -14.871  20.381  1.00  0.00     0.033 C 
BRANCH 143 144
HETATM  144  C   UNL     1      21.346 -14.975  21.883  1.00  0.00     0.014 C 
HETATM  145  C   UNL     1      20.517 -13.691  22.167  1.00  0.00     0.023 C 
HETATM  146  C   UNL     1      22.480 -14.934  22.929  1.00  0.00     0.023 C 
BRANCH 144 147
HETATM  147  C   UNL     1      20.491 -16.241  22.153  1.00  0.00     0.136 C 
HETATM  148  O   UNL     1      21.034 -17.348  22.220  1.00  0.00    -0.297 OA
BRANCH 147 149
HETATM  149  C   UNL     1      18.970 -16.146  22.241  1.00  0.00     0.109 C 
BRANCH 149 150
HETATM  150  C   UNL     1      18.301 -17.064  21.203  1.00  0.00     0.279 C 
BRANCH 150 151
HETATM  151  N   UNL     1      17.590 -16.312  20.146  1.00  0.00     0.080 N 
HETATM  152  C   UNL     1      18.399 -16.166  18.935  1.00  0.00     0.309 C 
HETATM  153  C   UNL     1      16.330 -16.984  19.806  1.00  0.00     0.309 C 
ENDBRANCH 150 151
ENDBRANCH 149 150
ENDBRANCH 147 149
ENDBRANCH 144 147
ENDBRANCH 143 144
ENDBRANCH 141 143
BRANCH 141 154
HETATM  154  C   UNL     1      23.260 -14.117  18.367  1.00  0.00     0.137 C 
HETATM  155  O   UNL     1      22.211 -14.101  17.715  1.00  0.00    -0.297 OA
BRANCH 154 156
HETATM  156  C   UNL     1      24.581 -13.949  17.649  1.00  0.00     0.109 C 
BRANCH 156 157
HETATM  157  C   UNL     1      24.714 -14.834  16.407  1.00  0.00     0.279 C 
BRANCH 157 158
HETATM  158  N   UNL     1      26.110 -15.312  16.303  1.00  0.00     0.080 N 
HETATM  159  C   UNL     1      26.665 -15.068  14.975  1.00  0.00     0.309 C 
HETATM  160  C   UNL     1      26.201 -16.738  16.625  1.00  0.00     0.309 C 
ENDBRANCH 157 158
ENDBRANCH 156 157
ENDBRANCH 154 156
ENDBRANCH 141 154
ENDBRANCH 140 141
ENDBRANCH 131 140
ENDBRANCH 130 131
ENDBRANCH 121 130
ENDBRANCH 120 121
ENDBRANCH 118 120
BRANCH 118 161
HETATM  161  C   UNL     1      22.657  -6.668  23.266  1.00  0.00     0.139 C 
HETATM  162  O   UNL     1      22.869  -6.631  24.485  1.00  0.00    -0.297 OA
BRANCH 161 163
HETATM  163  C   UNL     1      22.388  -5.367  22.550  1.00  0.00     0.109 C 
BRANCH 163 164
HETATM  164  C   UNL     1      23.698  -4.767  22.093  1.00  0.00     0.279 C 
BRANCH 164 165
HETATM  165  N   UNL     1      23.628  -3.955  20.870  1.00  0.00     0.080 N 
HETATM  166  C   UNL     1      24.705  -2.965  20.832  1.00  0.00     0.309 C 
HETATM  167  C   UNL     1      22.340  -3.256  20.822  1.00  0.00     0.309 C 
ENDBRANCH 164 165
ENDBRANCH 163 164
ENDBRANCH 161 163
ENDBRANCH 118 161
ENDBRANCH 117 118
ENDBRANCH 116 117
ENDBRANCH  97 116
BRANCH  98 168
HETATM  168  O   UNL     1      18.305 -10.083  22.441  1.00  0.00    -0.390 OA
HETATM  169  H   UNL     1      17.334 -10.191  22.472  1.00  0.00     0.210 HD
ENDBRANCH  98 168
ENDBRANCH  92  93
ENDBRANCH   5  92
TORSDOF 88
ENDMDL
MODEL 4
REMARK VINA RESULT:      -5.1      4.929     10.808
REMARK WARNING: 32 MAX_TORS EXCEEDED!!!
REMARK  88 active torsions:
REMARK  status: ('A' for Active; 'I' for Inactive)
REMARK    1  A    between atoms: C_1  and  O_28 
REMARK    2  A    between atoms: C_2  and  C_6 
REMARK    3  A    between atoms: C_3  and  O_8 
REMARK    4  A    between atoms: C_4  and  O_10 
REMARK    5  A    between atoms: C_5  and  O_11 
REMARK    6  A    between atoms: C_6  and  O_58 
REMARK    7  A    between atoms: O_11  and  C_18 
REMARK    8  A    between atoms: O_13  and  C_16 
REMARK    9  A    between atoms: C_15  and  C_21 
REMARK   10  A    between atoms: O_17  and  C_20 
REMARK   11  A    between atoms: O_17  and  C_39 
REMARK   12  A    between atoms: O_19  and  C_22 
REMARK   13  A    between atoms: O_19  and  C_153 
REMARK   14  A    between atoms: C_21  and  O_60 
REMARK   15  A    between atoms: O_24  and  C_27 
REMARK   16  A    between atoms: C_26  and  C_32 
REMARK   17  A    between atoms: O_28  and  C_31 
REMARK   18  A    between atoms: C_29  and  O_49 
REMARK   19  A    between atoms: O_30  and  C_33 
REMARK   20  A    between atoms: C_32  and  O_56 
REMARK   21  A    between atoms: O_35  and  C_38 
REMARK   22  A    between atoms: C_37  and  C_42 
REMARK   23  A    between atoms: O_40  and  C_43 
REMARK   24  A    between atoms: C_42  and  O_62 
REMARK   25  A    between atoms: O_45  and  C_48 
REMARK   26  A    between atoms: C_47  and  C_53 
REMARK   27  A    between atoms: O_49  and  C_52 
REMARK   28  A    between atoms: O_51  and  C_54 
REMARK   29  A    between atoms: O_51  and  C_64 
REMARK   30  A    between atoms: C_53  and  O_55 
REMARK   31  A    between atoms: C_64  and  C_65 
REMARK   32  A    between atoms: C_65  and  C_66 
REMARK   33  A    between atoms: C_65  and  C_75 
REMARK   34  A    between atoms: C_66  and  C_67 
REMARK   35  A    between atoms: C_67  and  C_68 
REMARK   36  A    between atoms: C_67  and  C_79 
REMARK   37  A    between atoms: C_68  and  C_69 
REMARK   38  A    between atoms: C_69  and  C_70 
REMARK   39  A    between atoms: C_69  and  C_83 
REMARK   40  A    between atoms: C_70  and  C_71 
REMARK   41  A    between atoms: C_71  and  C_72 
REMARK   42  A    between atoms: C_71  and  C_87 
REMARK   43  A    between atoms: C_72  and  C_73 
REMARK   44  A    between atoms: C_73  and  C_91 
REMARK   45  A    between atoms: C_75  and  C_76 
REMARK   46  A    between atoms: C_76  and  C_77 
REMARK   47  A    between atoms: C_77  and  N_95 
REMARK   48  A    between atoms: C_79  and  C_80 
REMARK   49  A    between atoms: C_80  and  C_81 
REMARK   50  A    between atoms: C_81  and  N_96 
REMARK   51  A    between atoms: C_83  and  C_84 
REMARK   52  A    between atoms: C_84  and  C_85 
REMARK   53  A    between atoms: C_85  and  N_97 
REMARK   54  A    between atoms: C_87  and  C_88 
REMARK   55  A    between atoms: C_88  and  C_89 
REMARK   56  A    between atoms: C_89  and  N_98 
REMARK   57  A    between atoms: C_91  and  C_92 
REMARK   58  A    between atoms: C_92  and  C_93 
REMARK   59  A    between atoms: C_93  and  N_99 
REMARK   60  A    between atoms: N_118  and  C_121 
REMARK   61  A    between atoms: C_121  and  C_127 
REMARK   62  A    between atoms: C_122  and  C_127 
REMARK   63  A    between atoms: C_122  and  C_134 
REMARK   64  A    between atoms: N_124  and  C_131 
REMARK   65  A    between atoms: C_128  and  C_129 
REMARK   66  A    between atoms: C_128  and  C_138 
REMARK   67  A    between atoms: C_129  and  C_131 
REMARK   68  A    between atoms: N_133  and  C_144 
REMARK   69  A    between atoms: C_134  and  C_145 
REMARK   70  A    between atoms: C_134  and  C_151 
REMARK   71  A    between atoms: C_136  and  C_144 
REMARK   72  A    between atoms: C_136  and  C_148 
REMARK   73  A    between atoms: C_138  and  C_154 
REMARK   74  A    between atoms: C_138  and  C_145 
REMARK   75  A    between atoms: C_140  and  C_148 
REMARK   76  A    between atoms: C_140  and  C_141 
REMARK   77  A    between atoms: C_141  and  C_155 
REMARK   78  A    between atoms: C_142  and  C_153 
REMARK   79  A    between atoms: C_142  and  C_151 
REMARK   80  A    between atoms: C_142  and  C_152 
REMARK   81  A    between atoms: C_143  and  N_149 
REMARK   82  A    between atoms: C_143  and  C_146 
REMARK   83  A    between atoms: C_146  and  C_152 
REMARK   84  A    between atoms: C_154  and  C_155 
REMARK   85  A    between atoms: C_155  and  C_161 
REMARK   86  A    between atoms: C_158  and  C_163 
REMARK   87  A    between atoms: C_158  and  C_161 
REMARK   88  A    between atoms: N_159  and  C_163 
ROOT
HETATM    1  C   UNL     1      10.175 -20.911   9.705  1.00  0.00     0.187 C 
HETATM    2  C   UNL     1       9.407 -19.584   9.517  1.00  0.00     0.180 C 
HETATM    3  C   UNL     1       9.647 -21.994   8.741  1.00  0.00     0.183 C 
HETATM    4  C   UNL     1       8.100 -22.021   8.705  1.00  0.00     0.204 C 
HETATM    5  C   UNL     1       7.524 -20.601   8.368  1.00  0.00     0.292 C 
HETATM    6  O   UNL     1       8.561 -19.613   8.352  1.00  0.00    -0.348 OA
ENDROOT
BRANCH   1   7
HETATM    7  O   UNL     1      11.563 -20.670   9.431  1.00  0.00    -0.348 OA
BRANCH   7   8
HETATM    8  C   UNL     1      12.478 -21.248  10.373  1.00  0.00     0.292 C 
HETATM    9  O   UNL     1      11.703 -21.646  11.501  1.00  0.00    -0.348 OA
HETATM   10  C   UNL     1      12.420 -22.006  12.692  1.00  0.00     0.180 C 
HETATM   11  C   UNL     1      13.624 -21.101  13.026  1.00  0.00     0.187 C 
HETATM   12  C   UNL     1      13.640 -19.837  12.174  1.00  0.00     0.183 C 
HETATM   13  C   UNL     1      13.623 -20.227  10.693  1.00  0.00     0.204 C 
BRANCH  10  14
HETATM   14  C   UNL     1      12.822 -23.486  12.588  1.00  0.00     0.198 C 
BRANCH  14  15
HETATM   15  O   UNL     1      13.854 -23.791  13.527  1.00  0.00    -0.398 OA
HETATM   16  H   UNL     1      14.175 -24.687  13.308  1.00  0.00     0.209 HD
ENDBRANCH  14  15
ENDBRANCH  10  14
BRANCH  11  17
HETATM   17  O   UNL     1      13.540 -20.673  14.395  1.00  0.00    -0.348 OA
BRANCH  17  18
HETATM   18  C   UNL     1      14.735 -20.903  15.133  1.00  0.00     0.292 C 
HETATM   19  O   UNL     1      14.396 -21.525  16.379  1.00  0.00    -0.351 OA
HETATM   20  C   UNL     1      15.526 -22.181  16.988  1.00  0.00     0.150 C 
HETATM   21  C   UNL     1      16.826 -21.400  16.718  1.00  0.00     0.068 C 
HETATM   22  C   UNL     1      16.511 -19.900  16.599  1.00  0.00     0.154 C 
HETATM   23  C   UNL     1      15.566 -19.581  15.392  1.00  0.00     0.205 C 
BRANCH  20  24
HETATM   24  C   UNL     1      15.565 -23.668  16.604  1.00  0.00     0.196 C 
BRANCH  24  25
HETATM   25  O   UNL     1      14.256 -24.192  16.398  1.00  0.00    -0.398 OA
HETATM   26  H   UNL     1      13.787 -23.647  15.746  1.00  0.00     0.209 HD
ENDBRANCH  24  25
ENDBRANCH  20  24
BRANCH  22  27
HETATM   27  O   UNL     1      15.886 -19.504  17.832  1.00  0.00    -0.393 OA
HETATM   28  H   UNL     1      15.334 -18.720  17.640  1.00  0.00     0.210 HD
ENDBRANCH  22  27
BRANCH  23  29
HETATM   29  O   UNL     1      14.712 -18.382  15.665  1.00  0.00    -0.377 OA
BRANCH  29  30
HETATM   30  C   UNL     1      15.371 -17.158  16.196  1.00  0.00     0.185 C 
BRANCH  30  31
HETATM   31  C   UNL     1      15.921 -16.137  15.073  1.00  0.00     0.039 C 
HETATM   32  C   UNL     1      16.902 -16.883  14.156  1.00  0.00     0.025 C 
BRANCH  31  33
HETATM   33  C   UNL     1      16.610 -14.815  15.715  1.00  0.00     0.036 C 
BRANCH  33  34
HETATM   34  C   UNL     1      17.547 -14.795  17.049  1.00  0.00     0.019 C 
HETATM   35  C   UNL     1      18.098 -13.343  17.071  1.00  0.00     0.023 C 
BRANCH  34  36
HETATM   36  C   UNL     1      18.757 -15.858  16.859  1.00  0.00     0.033 C 
BRANCH  36  37
HETATM   37  C   UNL     1      20.203 -15.646  16.114  1.00  0.00     0.019 C 
HETATM   38  C   UNL     1      20.028 -14.702  14.913  1.00  0.00     0.023 C 
BRANCH  37  39
HETATM   39  C   UNL     1      20.629 -17.100  15.590  1.00  0.00     0.033 C 
BRANCH  39  40
HETATM   40  C   UNL     1      20.671 -18.534  16.358  1.00  0.00     0.019 C 
HETATM   41  C   UNL     1      22.183 -18.826  16.555  1.00  0.00     0.023 C 
BRANCH  40  42
HETATM   42  C   UNL     1      19.937 -18.646  17.737  1.00  0.00     0.033 C 
BRANCH  42  43
HETATM   43  C   UNL     1      20.590 -19.014  19.123  1.00  0.00     0.014 C 
HETATM   44  C   UNL     1      21.547 -17.843  19.481  1.00  0.00     0.023 C 
HETATM   45  C   UNL     1      21.502 -20.257  19.090  1.00  0.00     0.023 C 
BRANCH  43  46
HETATM   46  C   UNL     1      19.535 -19.216  20.238  1.00  0.00     0.136 C 
HETATM   47  O   UNL     1      19.624 -18.582  21.294  1.00  0.00    -0.297 OA
BRANCH  46  48
HETATM   48  C   UNL     1      18.438 -20.266  20.085  1.00  0.00     0.109 C 
BRANCH  48  49
HETATM   49  C   UNL     1      17.394 -20.129  21.205  1.00  0.00     0.279 C 
BRANCH  49  50
HETATM   50  N   UNL     1      16.496 -21.300  21.296  1.00  0.00     0.080 N 
HETATM   51  C   UNL     1      15.114 -20.960  20.956  1.00  0.00     0.309 C 
HETATM   52  C   UNL     1      16.964 -22.367  20.403  1.00  0.00     0.309 C 
ENDBRANCH  49  50
ENDBRANCH  48  49
ENDBRANCH  46  48
ENDBRANCH  43  46
ENDBRANCH  42  43
ENDBRANCH  40  42
BRANCH  40  53
HETATM   53  C   UNL     1      20.159 -19.609  15.344  1.00  0.00     0.137 C 
HETATM   54  O   UNL     1      20.118 -20.800  15.634  1.00  0.00    -0.297 OA
BRANCH  53  55
HETATM   55  C   UNL     1      19.901 -19.182  13.914  1.00  0.00     0.109 C 
BRANCH  55  56
HETATM   56  C   UNL     1      19.501 -20.346  13.007  1.00  0.00     0.279 C 
BRANCH  56  57
HETATM   57  N   UNL     1      18.033 -20.512  13.054  1.00  0.00     0.080 N 
HETATM   58  C   UNL     1      17.384 -19.734  11.996  1.00  0.00     0.309 C 
HETATM   59  C   UNL     1      17.649 -21.916  12.944  1.00  0.00     0.309 C 
ENDBRANCH  56  57
ENDBRANCH  55  56
ENDBRANCH  53  55
ENDBRANCH  40  53
ENDBRANCH  39  40
ENDBRANCH  37  39
BRANCH  37  60
HETATM   60  C   UNL     1      21.370 -15.070  16.960  1.00  0.00     0.137 C 
HETATM   61  O   UNL     1      21.128 -14.514  18.038  1.00  0.00    -0.297 OA
BRANCH  60  62
HETATM   62  C   UNL     1      22.810 -15.191  16.524  1.00  0.00     0.109 C 
BRANCH  62  63
HETATM   63  C   UNL     1      23.784 -15.503  17.670  1.00  0.00     0.279 C 
BRANCH  63  64
HETATM   64  N   UNL     1      24.924 -14.562  17.690  1.00  0.00     0.080 N 
HETATM   65  C   UNL     1      24.483 -13.191  17.956  1.00  0.00     0.309 C 
HETATM   66  C   UNL     1      25.891 -14.967  18.716  1.00  0.00     0.309 C 
ENDBRANCH  63  64
ENDBRANCH  62  63
ENDBRANCH  60  62
ENDBRANCH  37  60
ENDBRANCH  36  37
ENDBRANCH  34  36
BRANCH  34  67
HETATM   67  C   UNL     1      16.896 -15.104  18.431  1.00  0.00     0.137 C 
HETATM   68  O   UNL     1      16.015 -14.344  18.849  1.00  0.00    -0.297 OA
BRANCH  67  69
HETATM   69  C   UNL     1      17.333 -16.292  19.301  1.00  0.00     0.109 C 
BRANCH  69  70
HETATM   70  C   UNL     1      16.163 -16.899  20.114  1.00  0.00     0.279 C 
BRANCH  70  71
HETATM   71  N   UNL     1      15.894 -16.411  21.482  1.00  0.00     0.080 N 
HETATM   72  C   UNL     1      15.113 -17.342  22.279  1.00  0.00     0.309 C 
HETATM   73  C   UNL     1      17.172 -16.173  22.171  1.00  0.00     0.309 C 
ENDBRANCH  70  71
ENDBRANCH  69  70
ENDBRANCH  67  69
ENDBRANCH  34  67
ENDBRANCH  33  34
ENDBRANCH  31  33
BRANCH  31  74
HETATM   74  C   UNL     1      14.628 -15.651  14.373  1.00  0.00     0.139 C 
HETATM   75  O   UNL     1      13.970 -16.422  13.661  1.00  0.00    -0.297 OA
BRANCH  74  76
HETATM   76  C   UNL     1      14.214 -14.197  14.423  1.00  0.00     0.109 C 
BRANCH  76  77
HETATM   77  C   UNL     1      13.035 -14.047  15.368  1.00  0.00     0.279 C 
BRANCH  77  78
HETATM   78  N   UNL     1      13.375 -13.522  16.698  1.00  0.00     0.080 N 
HETATM   79  C   UNL     1      12.821 -14.364  17.759  1.00  0.00     0.309 C 
HETATM   80  C   UNL     1      12.866 -12.154  16.838  1.00  0.00     0.309 C 
ENDBRANCH  77  78
ENDBRANCH  76  77
ENDBRANCH  74  76
ENDBRANCH  31  74
ENDBRANCH  30  31
ENDBRANCH  29  30
ENDBRANCH  23  29
ENDBRANCH  17  18
ENDBRANCH  11  17
BRANCH  12  81
HETATM   81  O   UNL     1      12.535 -18.986  12.508  1.00  0.00    -0.390 OA
HETATM   82  H   UNL     1      12.000 -18.935  11.689  1.00  0.00     0.210 HD
ENDBRANCH  12  81
BRANCH  13  83
HETATM   83  O   UNL     1      13.655 -19.011   9.854  1.00  0.00    -0.388 OA
HETATM   84  H   UNL     1      13.167 -19.173   9.031  1.00  0.00     0.210 HD
ENDBRANCH  13  83
ENDBRANCH   7   8
ENDBRANCH   1   7
BRANCH   2  85
HETATM   85  C   UNL     1       8.638 -19.207  10.797  1.00  0.00     0.198 C 
BRANCH  85  86
HETATM   86  O   UNL     1       9.425 -19.415  11.962  1.00  0.00    -0.398 OA
HETATM   87  H   UNL     1       9.784 -18.555  12.244  1.00  0.00     0.209 HD
ENDBRANCH  85  86
ENDBRANCH   2  85
BRANCH   3  88
HETATM   88  O   UNL     1      10.167 -21.796   7.416  1.00  0.00    -0.390 OA
HETATM   89  H   UNL     1       9.693 -21.025   7.038  1.00  0.00     0.210 HD
ENDBRANCH   3  88
BRANCH   4  90
HETATM   90  O   UNL     1       7.599 -23.081   7.800  1.00  0.00    -0.388 OA
HETATM   91  H   UNL     1       8.290 -23.312   7.160  1.00  0.00     0.210 HD
ENDBRANCH   4  90
BRANCH   5  92
HETATM   92  O   UNL     1       6.922 -20.578   7.056  1.00  0.00    -0.348 OA
BRANCH  92  93
HETATM   93  C   UNL     1       5.583 -20.010   6.966  1.00  0.00     0.187 C 
HETATM   94  C   UNL     1       5.205 -19.755   5.496  1.00  0.00     0.180 C 
HETATM   95  O   UNL     1       3.997 -20.409   5.107  1.00  0.00    -0.348 OA
HETATM   96  C   UNL     1       2.875 -20.294   5.980  1.00  0.00     0.292 C 
HETATM   97  C   UNL     1       3.109 -20.770   7.482  1.00  0.00     0.208 C 
HETATM   98  C   UNL     1       4.632 -21.072   7.600  1.00  0.00     0.183 C 
BRANCH  94  99
HETATM   99  C   UNL     1       5.102 -18.266   5.134  1.00  0.00     0.198 C 
BRANCH  99 100
HETATM  100  O   UNL     1       4.655 -18.111   3.788  1.00  0.00    -0.398 OA
HETATM  101  H   UNL     1       3.748 -17.746   3.815  1.00  0.00     0.209 HD
ENDBRANCH  99 100
ENDBRANCH  94  99
BRANCH  96 102
HETATM  102  O   UNL     1       1.887 -21.112   5.355  1.00  0.00    -0.348 OA
BRANCH 102 103
HETATM  103  C   UNL     1       1.544 -20.753   4.025  1.00  0.00     0.187 C 
HETATM  104  C   UNL     1       0.434 -21.683   3.496  1.00  0.00     0.176 C 
HETATM  105  O   UNL     1      -0.461 -21.009   2.578  1.00  0.00    -0.378 OA
HETATM  106  C   UNL     1       0.193 -20.041   1.752  1.00  0.00     0.202 C 
HETATM  107  C   UNL     1       0.744 -18.860   2.582  1.00  0.00     0.173 C 
HETATM  108  C   UNL     1       1.030 -19.301   4.035  1.00  0.00     0.180 C 
BRANCH 104 109
HETATM  109  C   UNL     1       0.979 -22.947   2.820  1.00  0.00     0.198 C 
BRANCH 109 110
HETATM  110  O   UNL     1       2.357 -23.119   3.150  1.00  0.00    -0.398 OA
HETATM  111  H   UNL     1       2.515 -24.083   3.170  1.00  0.00     0.209 HD
ENDBRANCH 109 110
ENDBRANCH 104 109
BRANCH 107 112
HETATM  112  O   UNL     1      -0.164 -17.698   2.553  1.00  0.00    -0.391 OA
HETATM  113  H   UNL     1       0.107 -17.058   3.230  1.00  0.00     0.210 HD
ENDBRANCH 107 112
BRANCH 108 114
HETATM  114  O   UNL     1      -0.156 -19.152   4.840  1.00  0.00    -0.390 OA
HETATM  115  H   UNL     1       0.099 -18.689   5.659  1.00  0.00     0.210 HD
ENDBRANCH 108 114
ENDBRANCH 102 103
ENDBRANCH  96 102
BRANCH  97 116
HETATM  116  O   UNL     1       2.196 -21.921   7.808  1.00  0.00    -0.369 OA
BRANCH 116 117
HETATM  117  C   UNL     1       2.550 -23.159   8.517  1.00  0.00     0.168 C 
BRANCH 117 118
HETATM  118  C   UNL     1       2.025 -24.591   8.018  1.00  0.00     0.046 C 
HETATM  119  C   UNL     1       2.207 -24.586   6.492  1.00  0.00     0.026 C 
BRANCH 118 120
HETATM  120  C   UNL     1       0.526 -25.133   8.413  1.00  0.00     0.036 C 
BRANCH 120 121
HETATM  121  C   UNL     1      -0.763 -25.110   7.360  1.00  0.00     0.019 C 
HETATM  122  C   UNL     1      -1.918 -25.561   8.297  1.00  0.00     0.023 C 
BRANCH 121 123
HETATM  123  C   UNL     1      -1.140 -23.756   6.685  1.00  0.00     0.137 C 
HETATM  124  O   UNL     1      -0.800 -22.708   7.248  1.00  0.00    -0.297 OA
BRANCH 123 125
HETATM  125  C   UNL     1      -1.940 -23.687   5.370  1.00  0.00     0.109 C 
BRANCH 125 126
HETATM  126  C   UNL     1      -3.060 -22.622   5.395  1.00  0.00     0.279 C 
BRANCH 126 127
HETATM  127  N   UNL     1      -4.398 -22.979   5.908  1.00  0.00     0.080 N 
HETATM  128  C   UNL     1      -4.522 -22.509   7.294  1.00  0.00     0.309 C 
HETATM  129  C   UNL     1      -4.661 -24.407   5.883  1.00  0.00     0.309 C 
ENDBRANCH 126 127
ENDBRANCH 125 126
ENDBRANCH 123 125
ENDBRANCH 121 123
BRANCH 121 130
HETATM  130  C   UNL     1      -0.616 -26.165   6.110  1.00  0.00     0.033 C 
BRANCH 130 131
HETATM  131  C   UNL     1      -0.343 -27.813   6.195  1.00  0.00     0.019 C 
HETATM  132  C   UNL     1       0.127 -28.308   4.816  1.00  0.00     0.023 C 
BRANCH 131 133
HETATM  133  C   UNL     1       0.693 -28.340   7.229  1.00  0.00     0.137 C 
HETATM  134  O   UNL     1       1.899 -28.314   6.954  1.00  0.00    -0.297 OA
BRANCH 133 135
HETATM  135  C   UNL     1       0.280 -28.875   8.578  1.00  0.00     0.109 C 
BRANCH 135 136
HETATM  136  C   UNL     1       1.155 -30.023   9.109  1.00  0.00     0.279 C 
BRANCH 136 137
HETATM  137  N   UNL     1       1.869 -29.646  10.348  1.00  0.00     0.080 N 
HETATM  138  C   UNL     1       3.315 -29.820  10.174  1.00  0.00     0.309 C 
HETATM  139  C   UNL     1       1.422 -30.445  11.492  1.00  0.00     0.309 C 
ENDBRANCH 136 137
ENDBRANCH 135 136
ENDBRANCH 133 135
ENDBRANCH 131 133
BRANCH 131 140
HETATM  140  C   UNL     1      -1.751 -28.508   6.542  1.00  0.00     0.033 C 
BRANCH 140 141
HETATM  141  C   UNL     1      -2.955 -29.033   5.552  1.00  0.00     0.019 C 
HETATM  142  C   UNL     1      -3.382 -27.771   4.755  1.00  0.00     0.023 C 
BRANCH 141 143
HETATM  143  C   UNL     1      -2.648 -30.197   4.541  1.00  0.00     0.033 C 
BRANCH 143 144
HETATM  144  C   UNL     1      -2.411 -31.722   4.893  1.00  0.00     0.014 C 
HETATM  145  C   UNL     1      -1.573 -32.316   3.726  1.00  0.00     0.023 C 
HETATM  146  C   UNL     1      -3.692 -32.582   4.917  1.00  0.00     0.023 C 
BRANCH 144 147
HETATM  147  C   UNL     1      -1.674 -31.921   6.243  1.00  0.00     0.136 C 
HETATM  148  O   UNL     1      -0.483 -31.615   6.346  1.00  0.00    -0.297 OA
BRANCH 147 149
HETATM  149  C   UNL     1      -2.382 -32.583   7.424  1.00  0.00     0.109 C 
BRANCH 149 150
HETATM  150  C   UNL     1      -1.922 -31.967   8.756  1.00  0.00     0.279 C 
BRANCH 150 151
HETATM  151  N   UNL     1      -1.583 -32.987   9.772  1.00  0.00     0.080 N 
HETATM  152  C   UNL     1      -0.217 -33.488   9.616  1.00  0.00     0.309 C 
HETATM  153  C   UNL     1      -1.740 -32.430  11.121  1.00  0.00     0.309 C 
ENDBRANCH 150 151
ENDBRANCH 149 150
ENDBRANCH 147 149
ENDBRANCH 144 147
ENDBRANCH 143 144
ENDBRANCH 141 143
BRANCH 141 154
HETATM  154  C   UNL     1      -4.173 -29.393   6.462  1.00  0.00     0.137 C 
HETATM  155  O   UNL     1      -5.277 -29.673   5.985  1.00  0.00    -0.297 OA
BRANCH 154 156
HETATM  156  C   UNL     1      -4.039 -29.204   7.958  1.00  0.00     0.109 C 
BRANCH 156 157
HETATM  157  C   UNL     1      -5.203 -28.429   8.578  1.00  0.00     0.279 C 
BRANCH 157 158
HETATM  158  N   UNL     1      -5.353 -28.833   9.993  1.00  0.00     0.080 N 
HETATM  159  C   UNL     1      -4.996 -30.235  10.193  1.00  0.00     0.309 C 
HETATM  160  C   UNL     1      -6.719 -28.597  10.465  1.00  0.00     0.309 C 
ENDBRANCH 157 158
ENDBRANCH 156 157
ENDBRANCH 154 156
ENDBRANCH 141 154
ENDBRANCH 140 141
ENDBRANCH 131 140
ENDBRANCH 130 131
ENDBRANCH 121 130
ENDBRANCH 120 121
ENDBRANCH 118 120
BRANCH 118 161
HETATM  161  C   UNL     1       2.991 -25.504   8.827  1.00  0.00     0.139 C 
HETATM  162  O   UNL     1       2.566 -26.394   9.575  1.00  0.00    -0.297 OA
BRANCH 161 163
HETATM  163  C   UNL     1       4.477 -25.236   8.811  1.00  0.00     0.109 C 
BRANCH 163 164
HETATM  164  C   UNL     1       5.139 -26.153   7.808  1.00  0.00     0.279 C 
BRANCH 164 165
HETATM  165  N   UNL     1       5.463 -27.499   8.300  1.00  0.00     0.080 N 
HETATM  166  C   UNL     1       6.178 -27.436   9.575  1.00  0.00     0.309 C 
HETATM  167  C   UNL     1       6.308 -28.187   7.318  1.00  0.00     0.309 C 
ENDBRANCH 164 165
ENDBRANCH 163 164
ENDBRANCH 161 163
ENDBRANCH 118 161
ENDBRANCH 117 118
ENDBRANCH 116 117
ENDBRANCH  97 116
BRANCH  98 168
HETATM  168  O   UNL     1       4.906 -22.353   6.990  1.00  0.00    -0.390 OA
HETATM  169  H   UNL     1       5.735 -22.678   7.394  1.00  0.00     0.210 HD
ENDBRANCH  98 168
ENDBRANCH  92  93
ENDBRANCH   5  92
TORSDOF 88
ENDMDL
MODEL 5
REMARK VINA RESULT:      -5.1     13.564     22.650
REMARK WARNING: 32 MAX_TORS EXCEEDED!!!
REMARK  88 active torsions:
REMARK  status: ('A' for Active; 'I' for Inactive)
REMARK    1  A    between atoms: C_1  and  O_28 
REMARK    2  A    between atoms: C_2  and  C_6 
REMARK    3  A    between atoms: C_3  and  O_8 
REMARK    4  A    between atoms: C_4  and  O_10 
REMARK    5  A    between atoms: C_5  and  O_11 
REMARK    6  A    between atoms: C_6  and  O_58 
REMARK    7  A    between atoms: O_11  and  C_18 
REMARK    8  A    between atoms: O_13  and  C_16 
REMARK    9  A    between atoms: C_15  and  C_21 
REMARK   10  A    between atoms: O_17  and  C_20 
REMARK   11  A    between atoms: O_17  and  C_39 
REMARK   12  A    between atoms: O_19  and  C_22 
REMARK   13  A    between atoms: O_19  and  C_153 
REMARK   14  A    between atoms: C_21  and  O_60 
REMARK   15  A    between atoms: O_24  and  C_27 
REMARK   16  A    between atoms: C_26  and  C_32 
REMARK   17  A    between atoms: O_28  and  C_31 
REMARK   18  A    between atoms: C_29  and  O_49 
REMARK   19  A    between atoms: O_30  and  C_33 
REMARK   20  A    between atoms: C_32  and  O_56 
REMARK   21  A    between atoms: O_35  and  C_38 
REMARK   22  A    between atoms: C_37  and  C_42 
REMARK   23  A    between atoms: O_40  and  C_43 
REMARK   24  A    between atoms: C_42  and  O_62 
REMARK   25  A    between atoms: O_45  and  C_48 
REMARK   26  A    between atoms: C_47  and  C_53 
REMARK   27  A    between atoms: O_49  and  C_52 
REMARK   28  A    between atoms: O_51  and  C_54 
REMARK   29  A    between atoms: O_51  and  C_64 
REMARK   30  A    between atoms: C_53  and  O_55 
REMARK   31  A    between atoms: C_64  and  C_65 
REMARK   32  A    between atoms: C_65  and  C_66 
REMARK   33  A    between atoms: C_65  and  C_75 
REMARK   34  A    between atoms: C_66  and  C_67 
REMARK   35  A    between atoms: C_67  and  C_68 
REMARK   36  A    between atoms: C_67  and  C_79 
REMARK   37  A    between atoms: C_68  and  C_69 
REMARK   38  A    between atoms: C_69  and  C_70 
REMARK   39  A    between atoms: C_69  and  C_83 
REMARK   40  A    between atoms: C_70  and  C_71 
REMARK   41  A    between atoms: C_71  and  C_72 
REMARK   42  A    between atoms: C_71  and  C_87 
REMARK   43  A    between atoms: C_72  and  C_73 
REMARK   44  A    between atoms: C_73  and  C_91 
REMARK   45  A    between atoms: C_75  and  C_76 
REMARK   46  A    between atoms: C_76  and  C_77 
REMARK   47  A    between atoms: C_77  and  N_95 
REMARK   48  A    between atoms: C_79  and  C_80 
REMARK   49  A    between atoms: C_80  and  C_81 
REMARK   50  A    between atoms: C_81  and  N_96 
REMARK   51  A    between atoms: C_83  and  C_84 
REMARK   52  A    between atoms: C_84  and  C_85 
REMARK   53  A    between atoms: C_85  and  N_97 
REMARK   54  A    between atoms: C_87  and  C_88 
REMARK   55  A    between atoms: C_88  and  C_89 
REMARK   56  A    between atoms: C_89  and  N_98 
REMARK   57  A    between atoms: C_91  and  C_92 
REMARK   58  A    between atoms: C_92  and  C_93 
REMARK   59  A    between atoms: C_93  and  N_99 
REMARK   60  A    between atoms: N_118  and  C_121 
REMARK   61  A    between atoms: C_121  and  C_127 
REMARK   62  A    between atoms: C_122  and  C_127 
REMARK   63  A    between atoms: C_122  and  C_134 
REMARK   64  A    between atoms: N_124  and  C_131 
REMARK   65  A    between atoms: C_128  and  C_129 
REMARK   66  A    between atoms: C_128  and  C_138 
REMARK   67  A    between atoms: C_129  and  C_131 
REMARK   68  A    between atoms: N_133  and  C_144 
REMARK   69  A    between atoms: C_134  and  C_145 
REMARK   70  A    between atoms: C_134  and  C_151 
REMARK   71  A    between atoms: C_136  and  C_144 
REMARK   72  A    between atoms: C_136  and  C_148 
REMARK   73  A    between atoms: C_138  and  C_154 
REMARK   74  A    between atoms: C_138  and  C_145 
REMARK   75  A    between atoms: C_140  and  C_148 
REMARK   76  A    between atoms: C_140  and  C_141 
REMARK   77  A    between atoms: C_141  and  C_155 
REMARK   78  A    between atoms: C_142  and  C_153 
REMARK   79  A    between atoms: C_142  and  C_151 
REMARK   80  A    between atoms: C_142  and  C_152 
REMARK   81  A    between atoms: C_143  and  N_149 
REMARK   82  A    between atoms: C_143  and  C_146 
REMARK   83  A    between atoms: C_146  and  C_152 
REMARK   84  A    between atoms: C_154  and  C_155 
REMARK   85  A    between atoms: C_155  and  C_161 
REMARK   86  A    between atoms: C_158  and  C_163 
REMARK   87  A    between atoms: C_158  and  C_161 
REMARK   88  A    between atoms: N_159  and  C_163 
ROOT
HETATM    1  C   UNL     1       4.098  -9.030  -2.961  1.00  0.00     0.187 C 
HETATM    2  C   UNL     1       3.710 -10.458  -3.402  1.00  0.00     0.180 C 
HETATM    3  C   UNL     1       5.126  -9.070  -1.811  1.00  0.00     0.183 C 
HETATM    4  C   UNL     1       4.736 -10.109  -0.732  1.00  0.00     0.204 C 
HETATM    5  C   UNL     1       4.514 -11.523  -1.374  1.00  0.00     0.292 C 
HETATM    6  O   UNL     1       4.558 -11.455  -2.803  1.00  0.00    -0.348 OA
ENDROOT
BRANCH   1   7
HETATM    7  O   UNL     1       4.674  -8.352  -4.086  1.00  0.00    -0.348 OA
BRANCH   7   8
HETATM    8  C   UNL     1       4.485  -6.929  -4.102  1.00  0.00     0.292 C 
HETATM    9  O   UNL     1       3.145  -6.694  -3.678  1.00  0.00    -0.348 OA
HETATM   10  C   UNL     1       2.624  -5.369  -3.866  1.00  0.00     0.180 C 
HETATM   11  C   UNL     1       2.999  -4.706  -5.208  1.00  0.00     0.187 C 
HETATM   12  C   UNL     1       3.617  -5.702  -6.182  1.00  0.00     0.183 C 
HETATM   13  C   UNL     1       4.830  -6.366  -5.523  1.00  0.00     0.204 C 
BRANCH  10  14
HETATM   14  C   UNL     1       3.038  -4.508  -2.661  1.00  0.00     0.198 C 
BRANCH  14  15
HETATM   15  O   UNL     1       2.944  -3.121  -2.982  1.00  0.00    -0.398 OA
HETATM   16  H   UNL     1       2.859  -2.642  -2.134  1.00  0.00     0.209 HD
ENDBRANCH  14  15
ENDBRANCH  10  14
BRANCH  11  17
HETATM   17  O   UNL     1       1.815  -4.192  -5.839  1.00  0.00    -0.348 OA
BRANCH  17  18
HETATM   18  C   UNL     1       1.866  -2.790  -6.078  1.00  0.00     0.292 C 
HETATM   19  O   UNL     1       3.137  -2.293  -5.641  1.00  0.00    -0.351 OA
HETATM   20  C   UNL     1       3.454  -1.013  -6.223  1.00  0.00     0.150 C 
HETATM   21  C   UNL     1       2.184  -0.157  -6.392  1.00  0.00     0.068 C 
HETATM   22  C   UNL     1       1.175  -0.508  -5.287  1.00  0.00     0.154 C 
HETATM   23  C   UNL     1       0.697  -1.998  -5.365  1.00  0.00     0.205 C 
BRANCH  20  24
HETATM   24  C   UNL     1       4.299  -1.186  -7.494  1.00  0.00     0.196 C 
BRANCH  24  25
HETATM   25  O   UNL     1       5.209  -2.276  -7.375  1.00  0.00    -0.398 OA
HETATM   26  H   UNL     1       5.055  -2.737  -6.535  1.00  0.00     0.209 HD
ENDBRANCH  24  25
ENDBRANCH  20  24
BRANCH  22  27
HETATM   27  O   UNL     1       1.829  -0.266  -4.029  1.00  0.00    -0.393 OA
HETATM   28  H   UNL     1       1.180   0.172  -3.443  1.00  0.00     0.210 HD
ENDBRANCH  22  27
BRANCH  23  29
HETATM   29  O   UNL     1       0.350  -2.534  -4.010  1.00  0.00    -0.377 OA
BRANCH  29  30
HETATM   30  C   UNL     1      -1.084  -2.777  -3.699  1.00  0.00     0.185 C 
BRANCH  30  31
HETATM   31  C   UNL     1      -1.472  -2.667  -2.135  1.00  0.00     0.039 C 
HETATM   32  C   UNL     1      -0.336  -3.271  -1.295  1.00  0.00     0.025 C 
BRANCH  31  33
HETATM   33  C   UNL     1      -2.893  -3.374  -1.793  1.00  0.00     0.036 C 
BRANCH  33  34
HETATM   34  C   UNL     1      -3.285  -4.917  -2.142  1.00  0.00     0.019 C 
HETATM   35  C   UNL     1      -4.177  -4.777  -3.405  1.00  0.00     0.023 C 
BRANCH  34  36
HETATM   36  C   UNL     1      -4.139  -5.536  -0.910  1.00  0.00     0.033 C 
BRANCH  36  37
HETATM   37  C   UNL     1      -5.707  -5.267  -0.511  1.00  0.00     0.019 C 
HETATM   38  C   UNL     1      -5.978  -3.754  -0.478  1.00  0.00     0.023 C 
BRANCH  37  39
HETATM   39  C   UNL     1      -5.880  -5.870   0.965  1.00  0.00     0.033 C 
BRANCH  39  40
HETATM   40  C   UNL     1      -5.448  -7.314   1.577  1.00  0.00     0.019 C 
HETATM   41  C   UNL     1      -4.271  -7.782   0.678  1.00  0.00     0.023 C 
BRANCH  40  42
HETATM   42  C   UNL     1      -5.007  -7.369   3.079  1.00  0.00     0.033 C 
BRANCH  42  43
HETATM   43  C   UNL     1      -5.942  -7.221   4.340  1.00  0.00     0.014 C 
HETATM   44  C   UNL     1      -6.196  -8.660   4.868  1.00  0.00     0.023 C 
HETATM   45  C   UNL     1      -7.349  -6.672   4.031  1.00  0.00     0.023 C 
BRANCH  43  46
HETATM   46  C   UNL     1      -5.309  -6.338   5.443  1.00  0.00     0.136 C 
HETATM   47  O   UNL     1      -4.095  -6.401   5.662  1.00  0.00    -0.297 OA
BRANCH  46  48
HETATM   48  C   UNL     1      -6.186  -5.462   6.333  1.00  0.00     0.109 C 
BRANCH  48  49
HETATM   49  C   UNL     1      -6.153  -4.000   5.860  1.00  0.00     0.279 C 
BRANCH  49  50
HETATM   50  N   UNL     1      -5.885  -3.050   6.960  1.00  0.00     0.080 N 
HETATM   51  C   UNL     1      -4.471  -3.030   7.336  1.00  0.00     0.309 C 
HETATM   52  C   UNL     1      -6.298  -1.696   6.570  1.00  0.00     0.309 C 
ENDBRANCH  49  50
ENDBRANCH  48  49
ENDBRANCH  46  48
ENDBRANCH  43  46
ENDBRANCH  42  43
ENDBRANCH  40  42
BRANCH  40  53
HETATM   53  C   UNL     1      -6.624  -8.303   1.286  1.00  0.00     0.137 C 
HETATM   54  O   UNL     1      -7.782  -7.915   1.181  1.00  0.00    -0.297 OA
BRANCH  53  55
HETATM   55  C   UNL     1      -6.340  -9.791   1.336  1.00  0.00     0.109 C 
BRANCH  55  56
HETATM   56  C   UNL     1      -7.009 -10.564   0.199  1.00  0.00     0.279 C 
BRANCH  56  57
HETATM   57  N   UNL     1      -6.102 -10.587  -0.968  1.00  0.00     0.080 N 
HETATM   58  C   UNL     1      -5.264 -11.789  -0.956  1.00  0.00     0.309 C 
HETATM   59  C   UNL     1      -6.842 -10.511  -2.223  1.00  0.00     0.309 C 
ENDBRANCH  56  57
ENDBRANCH  55  56
ENDBRANCH  53  55
ENDBRANCH  40  53
ENDBRANCH  39  40
ENDBRANCH  37  39
BRANCH  37  60
HETATM   60  C   UNL     1      -6.798  -5.889  -1.424  1.00  0.00     0.137 C 
HETATM   61  O   UNL     1      -6.640  -7.028  -1.878  1.00  0.00    -0.297 OA
BRANCH  60  62
HETATM   62  C   UNL     1      -8.075  -5.157  -1.758  1.00  0.00     0.109 C 
BRANCH  62  63
HETATM   63  C   UNL     1      -9.312  -5.695  -1.024  1.00  0.00     0.279 C 
BRANCH  63  64
HETATM   64  N   UNL     1      -9.924  -4.666  -0.155  1.00  0.00     0.080 N 
HETATM   65  C   UNL     1      -9.358  -4.699   1.195  1.00  0.00     0.309 C 
HETATM   66  C   UNL     1      -9.719  -3.334  -0.734  1.00  0.00     0.309 C 
ENDBRANCH  63  64
ENDBRANCH  62  63
ENDBRANCH  60  62
ENDBRANCH  37  60
ENDBRANCH  36  37
ENDBRANCH  34  36
BRANCH  34  67
HETATM   67  C   UNL     1      -2.144  -5.934  -2.446  1.00  0.00     0.137 C 
HETATM   68  O   UNL     1      -1.878  -6.183  -3.628  1.00  0.00    -0.297 OA
BRANCH  67  69
HETATM   69  C   UNL     1      -1.366  -6.657  -1.337  1.00  0.00     0.109 C 
BRANCH  69  70
HETATM   70  C   UNL     1       0.041  -7.115  -1.794  1.00  0.00     0.279 C 
BRANCH  70  71
HETATM   71  N   UNL     1       1.163  -7.092  -0.833  1.00  0.00     0.080 N 
HETATM   72  C   UNL     1       0.887  -6.296   0.351  1.00  0.00     0.309 C 
HETATM   73  C   UNL     1       1.461  -8.467  -0.405  1.00  0.00     0.309 C 
ENDBRANCH  70  71
ENDBRANCH  69  70
ENDBRANCH  67  69
ENDBRANCH  34  67
ENDBRANCH  33  34
ENDBRANCH  31  33
BRANCH  31  74
HETATM   74  C   UNL     1      -1.688  -1.147  -1.930  1.00  0.00     0.139 C 
HETATM   75  O   UNL     1      -2.728  -0.601  -2.323  1.00  0.00    -0.297 OA
BRANCH  74  76
HETATM   76  C   UNL     1      -0.584  -0.271  -1.380  1.00  0.00     0.109 C 
BRANCH  76  77
HETATM   77  C   UNL     1      -0.989   0.238  -0.009  1.00  0.00     0.279 C 
BRANCH  77  78
HETATM   78  N   UNL     1      -0.722   1.665   0.222  1.00  0.00     0.080 N 
HETATM   79  C   UNL     1      -1.643   2.509  -0.539  1.00  0.00     0.309 C 
HETATM   80  C   UNL     1       0.660   1.980  -0.155  1.00  0.00     0.309 C 
ENDBRANCH  77  78
ENDBRANCH  76  77
ENDBRANCH  74  76
ENDBRANCH  31  74
ENDBRANCH  30  31
ENDBRANCH  29  30
ENDBRANCH  23  29
ENDBRANCH  17  18
ENDBRANCH  11  17
BRANCH  12  81
HETATM   81  O   UNL     1       2.646  -6.672  -6.598  1.00  0.00    -0.390 OA
HETATM   82  H   UNL     1       3.169  -7.396  -6.998  1.00  0.00     0.210 HD
ENDBRANCH  12  81
BRANCH  13  83
HETATM   83  O   UNL     1       5.449  -7.323  -6.464  1.00  0.00    -0.388 OA
HETATM   84  H   UNL     1       5.746  -6.851  -7.257  1.00  0.00     0.210 HD
ENDBRANCH  13  83
ENDBRANCH   7   8
ENDBRANCH   1   7
BRANCH   2  85
HETATM   85  C   UNL     1       2.214 -10.724  -3.150  1.00  0.00     0.198 C 
BRANCH  85  86
HETATM   86  O   UNL     1       1.772 -11.903  -3.809  1.00  0.00    -0.398 OA
HETATM   87  H   UNL     1       0.801 -11.939  -3.750  1.00  0.00     0.209 HD
ENDBRANCH  85  86
ENDBRANCH   2  85
BRANCH   3  88
HETATM   88  O   UNL     1       6.443  -9.352  -2.312  1.00  0.00    -0.390 OA
HETATM   89  H   UNL     1       6.867  -9.959  -1.670  1.00  0.00     0.210 HD
ENDBRANCH   3  88
BRANCH   4  90
HETATM   90  O   UNL     1       5.711 -10.122   0.383  1.00  0.00    -0.388 OA
HETATM   91  H   UNL     1       5.248  -9.960   1.219  1.00  0.00     0.210 HD
ENDBRANCH   4  90
BRANCH   5  92
HETATM   92  O   UNL     1       5.552 -12.446  -0.979  1.00  0.00    -0.348 OA
BRANCH  92  93
HETATM   93  C   UNL     1       5.963 -13.427  -1.975  1.00  0.00     0.187 C 
HETATM   94  C   UNL     1       7.447 -13.238  -2.337  1.00  0.00     0.180 C 
HETATM   95  O   UNL     1       8.226 -14.418  -2.139  1.00  0.00    -0.348 OA
HETATM   96  C   UNL     1       7.701 -15.645  -2.640  1.00  0.00     0.292 C 
HETATM   97  C   UNL     1       6.249 -16.046  -2.121  1.00  0.00     0.208 C 
HETATM   98  C   UNL     1       5.734 -14.820  -1.310  1.00  0.00     0.183 C 
BRANCH  94  99
HETATM   99  C   UNL     1       7.673 -12.728  -3.768  1.00  0.00     0.198 C 
BRANCH  99 100
HETATM  100  O   UNL     1       7.527 -11.310  -3.818  1.00  0.00    -0.398 OA
HETATM  101  H   UNL     1       7.700 -10.961  -2.922  1.00  0.00     0.209 HD
ENDBRANCH  99 100
ENDBRANCH  94  99
BRANCH  96 102
HETATM  102  O   UNL     1       8.659 -16.612  -2.211  1.00  0.00    -0.348 OA
BRANCH 102 103
HETATM  103  C   UNL     1       9.089 -17.532  -3.202  1.00  0.00     0.187 C 
HETATM  104  C   UNL     1      10.360 -17.004  -3.899  1.00  0.00     0.176 C 
HETATM  105  O   UNL     1      11.250 -18.070  -4.308  1.00  0.00    -0.378 OA
HETATM  106  C   UNL     1      10.566 -19.250  -4.742  1.00  0.00     0.202 C 
HETATM  107  C   UNL     1       9.783 -19.914  -3.588  1.00  0.00     0.173 C 
HETATM  108  C   UNL     1       9.408 -18.871  -2.512  1.00  0.00     0.180 C 
BRANCH 104 109
HETATM  109  C   UNL     1      10.056 -16.118  -5.114  1.00  0.00     0.198 C 
BRANCH 109 110
HETATM  110  O   UNL     1       8.844 -16.545  -5.736  1.00  0.00    -0.398 OA
HETATM  111  H   UNL     1       8.987 -17.473  -6.004  1.00  0.00     0.209 HD
ENDBRANCH 109 110
ENDBRANCH 104 109
BRANCH 107 112
HETATM  112  O   UNL     1      10.531 -21.039  -2.994  1.00  0.00    -0.391 OA
HETATM  113  H   UNL     1      10.271 -21.866  -3.428  1.00  0.00     0.210 HD
ENDBRANCH 107 112
BRANCH 108 114
HETATM  114  O   UNL     1      10.474 -18.745  -1.551  1.00  0.00    -0.390 OA
HETATM  115  H   UNL     1      10.363 -19.454  -0.891  1.00  0.00     0.210 HD
ENDBRANCH 108 114
ENDBRANCH 102 103
ENDBRANCH  96 102
BRANCH  97 116
HETATM  116  O   UNL     1       6.312 -17.342  -1.358  1.00  0.00    -0.369 OA
BRANCH 116 117
HETATM  117  C   UNL     1       5.198 -18.255  -1.068  1.00  0.00     0.168 C 
BRANCH 117 118
HETATM  118  C   UNL     1       5.354 -19.846  -1.217  1.00  0.00     0.046 C 
HETATM  119  C   UNL     1       6.131 -20.061  -2.526  1.00  0.00     0.026 C 
BRANCH 118 120
HETATM  120  C   UNL     1       4.047 -20.838  -1.159  1.00  0.00     0.036 C 
BRANCH 120 121
HETATM  121  C   UNL     1       2.482 -20.286  -1.043  1.00  0.00     0.019 C 
HETATM  122  C   UNL     1       1.692 -21.534  -1.527  1.00  0.00     0.023 C 
BRANCH 121 123
HETATM  123  C   UNL     1       1.956 -19.851   0.360  1.00  0.00     0.137 C 
HETATM  124  O   UNL     1       2.191 -18.697   0.739  1.00  0.00    -0.297 OA
BRANCH 123 125
HETATM  125  C   UNL     1       1.186 -20.814   1.285  1.00  0.00     0.109 C 
BRANCH 125 126
HETATM  126  C   UNL     1       0.294 -20.083   2.315  1.00  0.00     0.279 C 
BRANCH 126 127
HETATM  127  N   UNL     1      -0.065 -20.755   3.579  1.00  0.00     0.080 N 
HETATM  128  C   UNL     1      -0.083 -19.764   4.662  1.00  0.00     0.309 C 
HETATM  129  C   UNL     1       0.854 -21.819   3.947  1.00  0.00     0.309 C 
ENDBRANCH 126 127
ENDBRANCH 125 126
ENDBRANCH 123 125
ENDBRANCH 121 123
BRANCH 121 130
HETATM  130  C   UNL     1       2.155 -19.006  -2.019  1.00  0.00     0.033 C 
BRANCH 130 131
HETATM  131  C   UNL     1       1.000 -18.915  -3.225  1.00  0.00     0.019 C 
HETATM  132  C   UNL     1       1.495 -19.711  -4.445  1.00  0.00     0.023 C 
BRANCH 131 133
HETATM  133  C   UNL     1      -0.436 -19.429  -2.915  1.00  0.00     0.137 C 
HETATM  134  O   UNL     1      -1.097 -19.971  -3.809  1.00  0.00    -0.297 OA
BRANCH 133 135
HETATM  135  C   UNL     1      -1.056 -19.302  -1.545  1.00  0.00     0.109 C 
BRANCH 135 136
HETATM  136  C   UNL     1      -2.226 -20.265  -1.279  1.00  0.00     0.279 C 
BRANCH 136 137
HETATM  137  N   UNL     1      -1.782 -21.499  -0.595  1.00  0.00     0.080 N 
HETATM  138  C   UNL     1      -1.845 -22.639  -1.515  1.00  0.00     0.309 C 
HETATM  139  C   UNL     1      -2.602 -21.785   0.584  1.00  0.00     0.309 C 
ENDBRANCH 136 137
ENDBRANCH 135 136
ENDBRANCH 133 135
ENDBRANCH 131 133
BRANCH 131 140
HETATM  140  C   UNL     1       0.868 -17.366  -3.636  1.00  0.00     0.033 C 
BRANCH 140 141
HETATM  141  C   UNL     1       0.820 -16.014  -2.701  1.00  0.00     0.019 C 
HETATM  142  C   UNL     1      -0.228 -15.099  -3.393  1.00  0.00     0.023 C 
BRANCH 141 143
HETATM  143  C   UNL     1       0.448 -16.159  -1.181  1.00  0.00     0.033 C 
BRANCH 143 144
HETATM  144  C   UNL     1      -0.764 -15.473  -0.431  1.00  0.00     0.014 C 
HETATM  145  C   UNL     1      -0.864 -16.158   0.961  1.00  0.00     0.023 C 
HETATM  146  C   UNL     1      -2.144 -15.722  -1.076  1.00  0.00     0.023 C 
BRANCH 144 147
HETATM  147  C   UNL     1      -0.581 -13.941  -0.267  1.00  0.00     0.136 C 
HETATM  148  O   UNL     1       0.407 -13.499   0.327  1.00  0.00    -0.297 OA
BRANCH 147 149
HETATM  149  C   UNL     1      -1.662 -12.975  -0.747  1.00  0.00     0.109 C 
BRANCH 149 150
HETATM  150  C   UNL     1      -1.090 -11.974  -1.766  1.00  0.00     0.279 C 
BRANCH 150 151
HETATM  151  N   UNL     1      -1.379 -10.567  -1.413  1.00  0.00     0.080 N 
HETATM  152  C   UNL     1      -2.369  -9.966  -2.306  1.00  0.00     0.309 C 
HETATM  153  C   UNL     1      -1.863 -10.482  -0.030  1.00  0.00     0.309 C 
ENDBRANCH 150 151
ENDBRANCH 149 150
ENDBRANCH 147 149
ENDBRANCH 144 147
ENDBRANCH 143 144
ENDBRANCH 141 143
BRANCH 141 154
HETATM  154  C   UNL     1       2.194 -15.290  -2.871  1.00  0.00     0.137 C 
HETATM  155  O   UNL     1       2.458 -14.250  -2.259  1.00  0.00    -0.297 OA
BRANCH 154 156
HETATM  156  C   UNL     1       3.136 -15.771  -3.953  1.00  0.00     0.109 C 
BRANCH 156 157
HETATM  157  C   UNL     1       3.227 -14.819  -5.147  1.00  0.00     0.279 C 
BRANCH 157 158
HETATM  158  N   UNL     1       4.579 -14.222  -5.186  1.00  0.00     0.080 N 
HETATM  159  C   UNL     1       4.604 -12.996  -5.979  1.00  0.00     0.309 C 
HETATM  160  C   UNL     1       5.559 -15.174  -5.714  1.00  0.00     0.309 C 
ENDBRANCH 157 158
ENDBRANCH 156 157
ENDBRANCH 154 156
ENDBRANCH 141 154
ENDBRANCH 140 141
ENDBRANCH 131 140
ENDBRANCH 130 131
ENDBRANCH 121 130
ENDBRANCH 120 121
ENDBRANCH 118 120
BRANCH 118 161
HETATM  161  C   UNL     1       6.125 -20.142   0.102  1.00  0.00     0.139 C 
HETATM  162  O   UNL     1       7.334 -19.902   0.212  1.00  0.00    -0.297 OA
BRANCH 161 163
HETATM  163  C   UNL     1       5.432 -20.849   1.241  1.00  0.00     0.109 C 
BRANCH 163 164
HETATM  164  C   UNL     1       5.299 -19.901   2.411  1.00  0.00     0.279 C 
BRANCH 164 165
HETATM  165  N   UNL     1       4.164 -20.162   3.308  1.00  0.00     0.080 N 
HETATM  166  C   UNL     1       3.675 -18.922   3.914  1.00  0.00     0.309 C 
HETATM  167  C   UNL     1       4.586 -21.075   4.375  1.00  0.00     0.309 C 
ENDBRANCH 164 165
ENDBRANCH 163 164
ENDBRANCH 161 163
ENDBRANCH 118 161
ENDBRANCH 117 118
ENDBRANCH 116 117
ENDBRANCH  97 116
BRANCH  98 168
HETATM  168  O   UNL     1       6.365 -14.816  -0.011  1.00  0.00    -0.390 OA
HETATM  169  H   UNL     1       6.205 -15.700   0.375  1.00  0.00     0.210 HD
ENDBRANCH  98 168
ENDBRANCH  92  93
ENDBRANCH   5  92
TORSDOF 88
ENDMDL
MODEL 6
REMARK VINA RESULT:      -5.1      2.836      6.458
REMARK WARNING: 32 MAX_TORS EXCEEDED!!!
REMARK  88 active torsions:
REMARK  status: ('A' for Active; 'I' for Inactive)
REMARK    1  A    between atoms: C_1  and  O_28 
REMARK    2  A    between atoms: C_2  and  C_6 
REMARK    3  A    between atoms: C_3  and  O_8 
REMARK    4  A    between atoms: C_4  and  O_10 
REMARK    5  A    between atoms: C_5  and  O_11 
REMARK    6  A    between atoms: C_6  and  O_58 
REMARK    7  A    between atoms: O_11  and  C_18 
REMARK    8  A    between atoms: O_13  and  C_16 
REMARK    9  A    between atoms: C_15  and  C_21 
REMARK   10  A    between atoms: O_17  and  C_20 
REMARK   11  A    between atoms: O_17  and  C_39 
REMARK   12  A    between atoms: O_19  and  C_22 
REMARK   13  A    between atoms: O_19  and  C_153 
REMARK   14  A    between atoms: C_21  and  O_60 
REMARK   15  A    between atoms: O_24  and  C_27 
REMARK   16  A    between atoms: C_26  and  C_32 
REMARK   17  A    between atoms: O_28  and  C_31 
REMARK   18  A    between atoms: C_29  and  O_49 
REMARK   19  A    between atoms: O_30  and  C_33 
REMARK   20  A    between atoms: C_32  and  O_56 
REMARK   21  A    between atoms: O_35  and  C_38 
REMARK   22  A    between atoms: C_37  and  C_42 
REMARK   23  A    between atoms: O_40  and  C_43 
REMARK   24  A    between atoms: C_42  and  O_62 
REMARK   25  A    between atoms: O_45  and  C_48 
REMARK   26  A    between atoms: C_47  and  C_53 
REMARK   27  A    between atoms: O_49  and  C_52 
REMARK   28  A    between atoms: O_51  and  C_54 
REMARK   29  A    between atoms: O_51  and  C_64 
REMARK   30  A    between atoms: C_53  and  O_55 
REMARK   31  A    between atoms: C_64  and  C_65 
REMARK   32  A    between atoms: C_65  and  C_66 
REMARK   33  A    between atoms: C_65  and  C_75 
REMARK   34  A    between atoms: C_66  and  C_67 
REMARK   35  A    between atoms: C_67  and  C_68 
REMARK   36  A    between atoms: C_67  and  C_79 
REMARK   37  A    between atoms: C_68  and  C_69 
REMARK   38  A    between atoms: C_69  and  C_70 
REMARK   39  A    between atoms: C_69  and  C_83 
REMARK   40  A    between atoms: C_70  and  C_71 
REMARK   41  A    between atoms: C_71  and  C_72 
REMARK   42  A    between atoms: C_71  and  C_87 
REMARK   43  A    between atoms: C_72  and  C_73 
REMARK   44  A    between atoms: C_73  and  C_91 
REMARK   45  A    between atoms: C_75  and  C_76 
REMARK   46  A    between atoms: C_76  and  C_77 
REMARK   47  A    between atoms: C_77  and  N_95 
REMARK   48  A    between atoms: C_79  and  C_80 
REMARK   49  A    between atoms: C_80  and  C_81 
REMARK   50  A    between atoms: C_81  and  N_96 
REMARK   51  A    between atoms: C_83  and  C_84 
REMARK   52  A    between atoms: C_84  and  C_85 
REMARK   53  A    between atoms: C_85  and  N_97 
REMARK   54  A    between atoms: C_87  and  C_88 
REMARK   55  A    between atoms: C_88  and  C_89 
REMARK   56  A    between atoms: C_89  and  N_98 
REMARK   57  A    between atoms: C_91  and  C_92 
REMARK   58  A    between atoms: C_92  and  C_93 
REMARK   59  A    between atoms: C_93  and  N_99 
REMARK   60  A    between atoms: N_118  and  C_121 
REMARK   61  A    between atoms: C_121  and  C_127 
REMARK   62  A    between atoms: C_122  and  C_127 
REMARK   63  A    between atoms: C_122  and  C_134 
REMARK   64  A    between atoms: N_124  and  C_131 
REMARK   65  A    between atoms: C_128  and  C_129 
REMARK   66  A    between atoms: C_128  and  C_138 
REMARK   67  A    between atoms: C_129  and  C_131 
REMARK   68  A    between atoms: N_133  and  C_144 
REMARK   69  A    between atoms: C_134  and  C_145 
REMARK   70  A    between atoms: C_134  and  C_151 
REMARK   71  A    between atoms: C_136  and  C_144 
REMARK   72  A    between atoms: C_136  and  C_148 
REMARK   73  A    between atoms: C_138  and  C_154 
REMARK   74  A    between atoms: C_138  and  C_145 
REMARK   75  A    between atoms: C_140  and  C_148 
REMARK   76  A    between atoms: C_140  and  C_141 
REMARK   77  A    between atoms: C_141  and  C_155 
REMARK   78  A    between atoms: C_142  and  C_153 
REMARK   79  A    between atoms: C_142  and  C_151 
REMARK   80  A    between atoms: C_142  and  C_152 
REMARK   81  A    between atoms: C_143  and  N_149 
REMARK   82  A    between atoms: C_143  and  C_146 
REMARK   83  A    between atoms: C_146  and  C_152 
REMARK   84  A    between atoms: C_154  and  C_155 
REMARK   85  A    between atoms: C_155  and  C_161 
REMARK   86  A    between atoms: C_158  and  C_163 
REMARK   87  A    between atoms: C_158  and  C_161 
REMARK   88  A    between atoms: N_159  and  C_163 
ROOT
HETATM    1  C   UNL     1       7.009 -22.156   8.998  1.00  0.00     0.187 C 
HETATM    2  C   UNL     1       5.690 -22.931   9.217  1.00  0.00     0.180 C 
HETATM    3  C   UNL     1       6.838 -21.076   7.910  1.00  0.00     0.183 C 
HETATM    4  C   UNL     1       6.075 -21.621   6.679  1.00  0.00     0.204 C 
HETATM    5  C   UNL     1       4.702 -22.248   7.106  1.00  0.00     0.292 C 
HETATM    6  O   UNL     1       4.585 -22.313   8.532  1.00  0.00    -0.348 OA
ENDROOT
BRANCH   1   7
HETATM    7  O   UNL     1       7.373 -21.528  10.236  1.00  0.00    -0.348 OA
BRANCH   7   8
HETATM    8  C   UNL     1       8.536 -20.689  10.174  1.00  0.00     0.292 C 
HETATM    9  O   UNL     1       9.542 -21.441   9.500  1.00  0.00    -0.348 OA
HETATM   10  C   UNL     1      10.882 -20.926   9.548  1.00  0.00     0.180 C 
HETATM   11  C   UNL     1      11.312 -20.355  10.916  1.00  0.00     0.187 C 
HETATM   12  C   UNL     1      10.319 -20.709  12.017  1.00  0.00     0.183 C 
HETATM   13  C   UNL     1       8.925 -20.218  11.617  1.00  0.00     0.204 C 
BRANCH  10  14
HETATM   14  C   UNL     1      11.049 -19.899   8.417  1.00  0.00     0.198 C 
BRANCH  14  15
HETATM   15  O   UNL     1      10.459 -20.384   7.211  1.00  0.00    -0.398 OA
HETATM   16  H   UNL     1      11.115 -20.979   6.798  1.00  0.00     0.209 HD
ENDBRANCH  14  15
ENDBRANCH  10  14
BRANCH  11  17
HETATM   17  O   UNL     1      12.574 -20.925  11.300  1.00  0.00    -0.348 OA
BRANCH  17  18
HETATM   18  C   UNL     1      13.675 -20.405  10.563  1.00  0.00     0.292 C 
HETATM   19  O   UNL     1      14.360 -21.493   9.929  1.00  0.00    -0.351 OA
HETATM   20  C   UNL     1      15.194 -21.054   8.838  1.00  0.00     0.150 C 
HETATM   21  C   UNL     1      15.817 -19.678   9.143  1.00  0.00     0.068 C 
HETATM   22  C   UNL     1      16.028 -19.533  10.659  1.00  0.00     0.154 C 
HETATM   23  C   UNL     1      14.682 -19.575  11.458  1.00  0.00     0.205 C 
BRANCH  20  24
HETATM   24  C   UNL     1      14.440 -21.148   7.504  1.00  0.00     0.196 C 
BRANCH  24  25
HETATM   25  O   UNL     1      14.281 -19.867   6.899  1.00  0.00    -0.398 OA
HETATM   26  H   UNL     1      13.365 -19.567   7.013  1.00  0.00     0.209 HD
ENDBRANCH  24  25
ENDBRANCH  20  24
BRANCH  22  27
HETATM   27  O   UNL     1      16.879 -20.617  11.070  1.00  0.00    -0.393 OA
HETATM   28  H   UNL     1      16.602 -21.411  10.571  1.00  0.00     0.210 HD
ENDBRANCH  22  27
BRANCH  23  29
HETATM   29  O   UNL     1      14.875 -20.146  12.829  1.00  0.00    -0.377 OA
BRANCH  29  30
HETATM   30  C   UNL     1      14.513 -19.301  13.998  1.00  0.00     0.185 C 
BRANCH  30  31
HETATM   31  C   UNL     1      15.690 -19.098  15.084  1.00  0.00     0.039 C 
HETATM   32  C   UNL     1      15.087 -19.177  16.495  1.00  0.00     0.025 C 
BRANCH  31  33
HETATM   33  C   UNL     1      16.504 -17.709  14.872  1.00  0.00     0.036 C 
BRANCH  33  34
HETATM   34  C   UNL     1      15.824 -16.240  14.680  1.00  0.00     0.019 C 
HETATM   35  C   UNL     1      15.088 -16.368  13.318  1.00  0.00     0.023 C 
BRANCH  34  36
HETATM   36  C   UNL     1      16.997 -15.124  14.588  1.00  0.00     0.033 C 
BRANCH  36  37
HETATM   37  C   UNL     1      18.263 -14.879  15.602  1.00  0.00     0.019 C 
HETATM   38  C   UNL     1      19.456 -14.319  14.811  1.00  0.00     0.023 C 
BRANCH  37  39
HETATM   39  C   UNL     1      18.637 -16.330  16.173  1.00  0.00     0.033 C 
BRANCH  39  40
HETATM   40  C   UNL     1      20.072 -17.091  16.275  1.00  0.00     0.019 C 
HETATM   41  C   UNL     1      20.390 -17.521  14.817  1.00  0.00     0.023 C 
BRANCH  40  42
HETATM   42  C   UNL     1      21.285 -16.289  16.856  1.00  0.00     0.033 C 
BRANCH  42  43
HETATM   43  C   UNL     1      21.615 -16.053  18.380  1.00  0.00     0.014 C 
HETATM   44  C   UNL     1      22.699 -17.100  18.759  1.00  0.00     0.023 C 
HETATM   45  C   UNL     1      20.445 -16.348  19.340  1.00  0.00     0.023 C 
BRANCH  43  46
HETATM   46  C   UNL     1      22.121 -14.617  18.659  1.00  0.00     0.136 C 
HETATM   47  O   UNL     1      22.679 -13.975  17.763  1.00  0.00    -0.297 OA
BRANCH  46  48
HETATM   48  C   UNL     1      22.027 -14.021  20.061  1.00  0.00     0.109 C 
BRANCH  48  49
HETATM   49  C   UNL     1      21.141 -12.765  20.060  1.00  0.00     0.279 C 
BRANCH  49  50
HETATM   50  N   UNL     1      21.925 -11.512  20.038  1.00  0.00     0.080 N 
HETATM   51  C   UNL     1      21.121 -10.355  20.432  1.00  0.00     0.309 C 
HETATM   52  C   UNL     1      23.082 -11.623  20.934  1.00  0.00     0.309 C 
ENDBRANCH  49  50
ENDBRANCH  48  49
ENDBRANCH  46  48
ENDBRANCH  43  46
ENDBRANCH  42  43
ENDBRANCH  40  42
BRANCH  40  53
HETATM   53  C   UNL     1      19.829 -18.418  17.066  1.00  0.00     0.137 C 
HETATM   54  O   UNL     1      20.635 -19.342  17.039  1.00  0.00    -0.297 OA
BRANCH  53  55
HETATM   55  C   UNL     1      18.474 -18.631  17.711  1.00  0.00     0.109 C 
BRANCH  55  56
HETATM   56  C   UNL     1      18.465 -19.789  18.710  1.00  0.00     0.279 C 
BRANCH  56  57
HETATM   57  N   UNL     1      17.470 -19.508  19.766  1.00  0.00     0.080 N 
HETATM   58  C   UNL     1      16.911 -18.162  19.615  1.00  0.00     0.309 C 
HETATM   59  C   UNL     1      16.395 -20.495  19.765  1.00  0.00     0.309 C 
ENDBRANCH  56  57
ENDBRANCH  55  56
ENDBRANCH  53  55
ENDBRANCH  40  53
ENDBRANCH  39  40
ENDBRANCH  37  39
BRANCH  37  60
HETATM   60  C   UNL     1      18.045 -13.922  16.805  1.00  0.00     0.137 C 
HETATM   61  O   UNL     1      18.936 -13.793  17.654  1.00  0.00    -0.297 OA
BRANCH  60  62
HETATM   62  C   UNL     1      16.784 -13.109  16.963  1.00  0.00     0.109 C 
BRANCH  62  63
HETATM   63  C   UNL     1      16.263 -13.040  18.406  1.00  0.00     0.279 C 
BRANCH  63  64
HETATM   64  N   UNL     1      16.329 -11.665  18.946  1.00  0.00     0.080 N 
HETATM   65  C   UNL     1      17.410 -11.526  19.925  1.00  0.00     0.309 C 
HETATM   66  C   UNL     1      16.538 -10.706  17.856  1.00  0.00     0.309 C 
ENDBRANCH  63  64
ENDBRANCH  62  63
ENDBRANCH  60  62
ENDBRANCH  37  60
ENDBRANCH  36  37
ENDBRANCH  34  36
BRANCH  34  67
HETATM   67  C   UNL     1      14.811 -15.733  15.750  1.00  0.00     0.137 C 
HETATM   68  O   UNL     1      14.998 -16.046  16.931  1.00  0.00    -0.297 OA
BRANCH  67  69
HETATM   69  C   UNL     1      13.579 -14.892  15.386  1.00  0.00     0.109 C 
BRANCH  69  70
HETATM   70  C   UNL     1      13.172 -13.909  16.512  1.00  0.00     0.279 C 
BRANCH  70  71
HETATM   71  N   UNL     1      12.843 -12.509  16.175  1.00  0.00     0.080 N 
HETATM   72  C   UNL     1      12.975 -11.602  17.303  1.00  0.00     0.309 C 
HETATM   73  C   UNL     1      13.740 -12.046  15.105  1.00  0.00     0.309 C 
ENDBRANCH  70  71
ENDBRANCH  69  70
ENDBRANCH  67  69
ENDBRANCH  34  67
ENDBRANCH  33  34
ENDBRANCH  31  33
BRANCH  31  74
HETATM   74  C   UNL     1      16.686 -20.235  14.744  1.00  0.00     0.139 C 
HETATM   75  O   UNL     1      16.423 -21.409  15.038  1.00  0.00    -0.297 OA
BRANCH  74  76
HETATM   76  C   UNL     1      18.055 -19.928  14.179  1.00  0.00     0.109 C 
BRANCH  76  77
HETATM   77  C   UNL     1      18.990 -21.084  14.484  1.00  0.00     0.279 C 
BRANCH  77  78
HETATM   78  N   UNL     1      19.761 -21.573  13.332  1.00  0.00     0.080 N 
HETATM   79  C   UNL     1      19.478 -22.983  13.062  1.00  0.00     0.309 C 
HETATM   80  C   UNL     1      21.196 -21.398  13.583  1.00  0.00     0.309 C 
ENDBRANCH  77  78
ENDBRANCH  76  77
ENDBRANCH  74  76
ENDBRANCH  31  74
ENDBRANCH  30  31
ENDBRANCH  29  30
ENDBRANCH  23  29
ENDBRANCH  17  18
ENDBRANCH  11  17
BRANCH  12  81
HETATM   81  O   UNL     1      10.329 -22.120  12.275  1.00  0.00    -0.390 OA
HETATM   82  H   UNL     1      10.027 -22.530  11.439  1.00  0.00     0.210 HD
ENDBRANCH  12  81
BRANCH  13  83
HETATM   83  O   UNL     1       7.954 -20.539  12.684  1.00  0.00    -0.388 OA
HETATM   84  H   UNL     1       8.201 -21.378  13.104  1.00  0.00     0.210 HD
ENDBRANCH  13  83
ENDBRANCH   7   8
ENDBRANCH   1   7
BRANCH   2  85
HETATM   85  C   UNL     1       5.857 -24.417   8.851  1.00  0.00     0.198 C 
BRANCH  85  86
HETATM   86  O   UNL     1       6.901 -25.028   9.598  1.00  0.00    -0.398 OA
HETATM   87  H   UNL     1       6.958 -25.963   9.333  1.00  0.00     0.209 HD
ENDBRANCH  85  86
ENDBRANCH   2  85
BRANCH   3  88
HETATM   88  O   UNL     1       6.163 -19.922   8.437  1.00  0.00    -0.390 OA
HETATM   89  H   UNL     1       6.857 -19.274   8.681  1.00  0.00     0.210 HD
ENDBRANCH   3  88
BRANCH   4  90
HETATM   90  O   UNL     1       5.940 -20.587   5.626  1.00  0.00    -0.388 OA
HETATM   91  H   UNL     1       6.286 -20.932   4.789  1.00  0.00     0.210 HD
ENDBRANCH   4  90
BRANCH   5  92
HETATM   92  O   UNL     1       3.594 -21.446   6.644  1.00  0.00    -0.348 OA
BRANCH  92  93
HETATM   93  C   UNL     1       2.461 -22.168   6.078  1.00  0.00     0.187 C 
HETATM   94  C   UNL     1       1.390 -22.418   7.155  1.00  0.00     0.180 C 
HETATM   95  O   UNL     1       0.108 -21.901   6.801  1.00  0.00    -0.348 OA
HETATM   96  C   UNL     1      -0.373 -22.178   5.487  1.00  0.00     0.292 C 
HETATM   97  C   UNL     1       0.573 -21.727   4.288  1.00  0.00     0.208 C 
HETATM   98  C   UNL     1       1.899 -21.248   4.950  1.00  0.00     0.183 C 
BRANCH  94  99
HETATM   99  C   UNL     1       1.240 -23.896   7.545  1.00  0.00     0.198 C 
BRANCH  99 100
HETATM  100  O   UNL     1       0.056 -24.088   8.318  1.00  0.00    -0.398 OA
HETATM  101  H   UNL     1       0.283 -24.672   9.069  1.00  0.00     0.209 HD
ENDBRANCH  99 100
ENDBRANCH  94  99
BRANCH  96 102
HETATM  102  O   UNL     1      -1.608 -21.465   5.433  1.00  0.00    -0.348 OA
BRANCH 102 103
HETATM  103  C   UNL     1      -2.770 -22.225   5.724  1.00  0.00     0.187 C 
HETATM  104  C   UNL     1      -2.452 -23.732   5.636  1.00  0.00     0.176 C 
HETATM  105  O   UNL     1      -3.226 -24.516   6.576  1.00  0.00    -0.378 OA
HETATM  106  C   UNL     1      -4.552 -24.018   6.779  1.00  0.00     0.202 C 
HETATM  107  C   UNL     1      -4.544 -22.629   7.455  1.00  0.00     0.173 C 
HETATM  108  C   UNL     1      -3.224 -21.884   7.156  1.00  0.00     0.180 C 
BRANCH 104 109
HETATM  109  C   UNL     1      -2.651 -24.308   4.229  1.00  0.00     0.198 C 
BRANCH 109 110
HETATM  110  O   UNL     1      -2.606 -25.734   4.275  1.00  0.00    -0.398 OA
HETATM  111  H   UNL     1      -2.380 -26.030   3.372  1.00  0.00     0.209 HD
ENDBRANCH 109 110
ENDBRANCH 104 109
BRANCH 107 112
HETATM  112  O   UNL     1      -4.777 -22.725   8.909  1.00  0.00    -0.391 OA
HETATM  113  H   UNL     1      -5.163 -21.895   9.230  1.00  0.00     0.210 HD
ENDBRANCH 107 112
BRANCH 108 114
HETATM  114  O   UNL     1      -2.226 -22.231   8.136  1.00  0.00    -0.390 OA
HETATM  115  H   UNL     1      -1.701 -22.969   7.775  1.00  0.00     0.210 HD
ENDBRANCH 108 114
ENDBRANCH 102 103
ENDBRANCH  96 102
BRANCH  97 116
HETATM  116  O   UNL     1      -0.126 -20.705   3.433  1.00  0.00    -0.369 OA
BRANCH 116 117
HETATM  117  C   UNL     1       0.059 -20.478   1.994  1.00  0.00     0.168 C 
BRANCH 117 118
HETATM  118  C   UNL     1       0.743 -19.136   1.436  1.00  0.00     0.046 C 
HETATM  119  C   UNL     1      -0.025 -17.980   2.097  1.00  0.00     0.026 C 
BRANCH 118 120
HETATM  120  C   UNL     1       0.902 -18.869  -0.176  1.00  0.00     0.036 C 
BRANCH 120 121
HETATM  121  C   UNL     1      -0.332 -19.098  -1.269  1.00  0.00     0.019 C 
HETATM  122  C   UNL     1       0.450 -19.052  -2.611  1.00  0.00     0.023 C 
BRANCH 121 123
HETATM  123  C   UNL     1      -1.151 -20.423  -1.190  1.00  0.00     0.137 C 
HETATM  124  O   UNL     1      -2.348 -20.353  -0.886  1.00  0.00    -0.297 OA
BRANCH 123 125
HETATM  125  C   UNL     1      -0.512 -21.801  -1.450  1.00  0.00     0.109 C 
BRANCH 125 126
HETATM  126  C   UNL     1      -1.137 -22.930  -0.598  1.00  0.00     0.279 C 
BRANCH 126 127
HETATM  127  N   UNL     1      -1.733 -24.105  -1.265  1.00  0.00     0.080 N 
HETATM  128  C   UNL     1      -3.006 -23.713  -1.884  1.00  0.00     0.309 C 
HETATM  129  C   UNL     1      -1.986 -25.213  -0.361  1.00  0.00     0.309 C 
ENDBRANCH 126 127
ENDBRANCH 125 126
ENDBRANCH 123 125
ENDBRANCH 121 123
BRANCH 121 130
HETATM  130  C   UNL     1      -1.468 -17.911  -1.245  1.00  0.00     0.033 C 
BRANCH 130 131
HETATM  131  C   UNL     1      -1.226 -16.267  -1.429  1.00  0.00     0.019 C 
HETATM  132  C   UNL     1      -2.296 -15.516  -0.618  1.00  0.00     0.023 C 
BRANCH 131 133
HETATM  133  C   UNL     1       0.147 -15.668  -1.008  1.00  0.00     0.137 C 
HETATM  134  O   UNL     1       0.285 -15.190   0.124  1.00  0.00    -0.297 OA
BRANCH 133 135
HETATM  135  C   UNL     1       1.337 -15.661  -1.936  1.00  0.00     0.109 C 
BRANCH 135 136
HETATM  136  C   UNL     1       2.349 -14.532  -1.673  1.00  0.00     0.279 C 
BRANCH 136 137
HETATM  137  N   UNL     1       3.742 -15.030  -1.658  1.00  0.00     0.080 N 
HETATM  138  C   UNL     1       4.683 -13.905  -1.670  1.00  0.00     0.309 C 
HETATM  139  C   UNL     1       4.015 -15.901  -2.803  1.00  0.00     0.309 C 
ENDBRANCH 136 137
ENDBRANCH 135 136
ENDBRANCH 133 135
ENDBRANCH 131 133
BRANCH 131 140
HETATM  140  C   UNL     1      -1.429 -15.931  -2.989  1.00  0.00     0.033 C 
BRANCH 140 141
HETATM  141  C   UNL     1      -2.144 -14.642  -3.719  1.00  0.00     0.019 C 
HETATM  142  C   UNL     1      -1.978 -14.914  -5.239  1.00  0.00     0.023 C 
BRANCH 141 143
HETATM  143  C   UNL     1      -3.657 -14.345  -3.414  1.00  0.00     0.033 C 
BRANCH 143 144
HETATM  144  C   UNL     1      -4.898 -15.249  -3.800  1.00  0.00     0.014 C 
HETATM  145  C   UNL     1      -5.184 -14.982  -5.305  1.00  0.00     0.023 C 
HETATM  146  C   UNL     1      -6.214 -14.869  -3.090  1.00  0.00     0.023 C 
BRANCH 144 147
HETATM  147  C   UNL     1      -4.641 -16.759  -3.558  1.00  0.00     0.136 C 
HETATM  148  O   UNL     1      -4.701 -17.218  -2.413  1.00  0.00    -0.297 OA
BRANCH 147 149
HETATM  149  C   UNL     1      -4.219 -17.669  -4.709  1.00  0.00     0.109 C 
BRANCH 149 150
HETATM  150  C   UNL     1      -3.462 -18.902  -4.187  1.00  0.00     0.279 C 
BRANCH 150 151
HETATM  151  N   UNL     1      -4.152 -20.173  -4.497  1.00  0.00     0.080 N 
HETATM  152  C   UNL     1      -4.885 -20.697  -3.344  1.00  0.00     0.309 C 
HETATM  153  C   UNL     1      -5.084 -19.983  -5.615  1.00  0.00     0.309 C 
ENDBRANCH 150 151
ENDBRANCH 149 150
ENDBRANCH 147 149
ENDBRANCH 144 147
ENDBRANCH 143 144
ENDBRANCH 141 143
BRANCH 141 154
HETATM  154  C   UNL     1      -1.258 -13.392  -3.411  1.00  0.00     0.137 C 
HETATM  155  O   UNL     1      -0.160 -13.229  -3.953  1.00  0.00    -0.297 OA
BRANCH 154 156
HETATM  156  C   UNL     1      -1.673 -12.471  -2.285  1.00  0.00     0.109 C 
BRANCH 156 157
HETATM  157  C   UNL     1      -0.508 -12.043  -1.390  1.00  0.00     0.279 C 
BRANCH 157 158
HETATM  158  N   UNL     1      -0.982 -11.948   0.007  1.00  0.00     0.080 N 
HETATM  159  C   UNL     1      -1.944 -10.862   0.177  1.00  0.00     0.309 C 
HETATM  160  C   UNL     1       0.140 -11.766   0.931  1.00  0.00     0.309 C 
ENDBRANCH 157 158
ENDBRANCH 156 157
ENDBRANCH 154 156
ENDBRANCH 141 154
ENDBRANCH 140 141
ENDBRANCH 131 140
ENDBRANCH 130 131
ENDBRANCH 121 130
ENDBRANCH 120 121
ENDBRANCH 118 120
BRANCH 118 161
HETATM  161  C   UNL     1       2.197 -19.375   1.935  1.00  0.00     0.139 C 
HETATM  162  O   UNL     1       2.621 -18.845   2.970  1.00  0.00    -0.297 OA
BRANCH 161 163
HETATM  163  C   UNL     1       3.167 -20.166   1.091  1.00  0.00     0.109 C 
BRANCH 163 164
HETATM  164  C   UNL     1       3.415 -21.509   1.741  1.00  0.00     0.279 C 
BRANCH 164 165
HETATM  165  N   UNL     1       4.810 -21.779   2.120  1.00  0.00     0.080 N 
HETATM  166  C   UNL     1       5.599 -22.198   0.961  1.00  0.00     0.309 C 
HETATM  167  C   UNL     1       4.843 -22.845   3.127  1.00  0.00     0.309 C 
ENDBRANCH 164 165
ENDBRANCH 163 164
ENDBRANCH 161 163
ENDBRANCH 118 161
ENDBRANCH 117 118
ENDBRANCH 116 117
ENDBRANCH  97 116
BRANCH  98 168
HETATM  168  O   UNL     1       1.701 -19.925   5.495  1.00  0.00    -0.390 OA
HETATM  169  H   UNL     1       1.798 -20.010   6.464  1.00  0.00     0.210 HD
ENDBRANCH  98 168
ENDBRANCH  92  93
ENDBRANCH   5  92
TORSDOF 88
ENDMDL
MODEL 7
REMARK VINA RESULT:      -5.1     11.174     22.344
REMARK WARNING: 32 MAX_TORS EXCEEDED!!!
REMARK  88 active torsions:
REMARK  status: ('A' for Active; 'I' for Inactive)
REMARK    1  A    between atoms: C_1  and  O_28 
REMARK    2  A    between atoms: C_2  and  C_6 
REMARK    3  A    between atoms: C_3  and  O_8 
REMARK    4  A    between atoms: C_4  and  O_10 
REMARK    5  A    between atoms: C_5  and  O_11 
REMARK    6  A    between atoms: C_6  and  O_58 
REMARK    7  A    between atoms: O_11  and  C_18 
REMARK    8  A    between atoms: O_13  and  C_16 
REMARK    9  A    between atoms: C_15  and  C_21 
REMARK   10  A    between atoms: O_17  and  C_20 
REMARK   11  A    between atoms: O_17  and  C_39 
REMARK   12  A    between atoms: O_19  and  C_22 
REMARK   13  A    between atoms: O_19  and  C_153 
REMARK   14  A    between atoms: C_21  and  O_60 
REMARK   15  A    between atoms: O_24  and  C_27 
REMARK   16  A    between atoms: C_26  and  C_32 
REMARK   17  A    between atoms: O_28  and  C_31 
REMARK   18  A    between atoms: C_29  and  O_49 
REMARK   19  A    between atoms: O_30  and  C_33 
REMARK   20  A    between atoms: C_32  and  O_56 
REMARK   21  A    between atoms: O_35  and  C_38 
REMARK   22  A    between atoms: C_37  and  C_42 
REMARK   23  A    between atoms: O_40  and  C_43 
REMARK   24  A    between atoms: C_42  and  O_62 
REMARK   25  A    between atoms: O_45  and  C_48 
REMARK   26  A    between atoms: C_47  and  C_53 
REMARK   27  A    between atoms: O_49  and  C_52 
REMARK   28  A    between atoms: O_51  and  C_54 
REMARK   29  A    between atoms: O_51  and  C_64 
REMARK   30  A    between atoms: C_53  and  O_55 
REMARK   31  A    between atoms: C_64  and  C_65 
REMARK   32  A    between atoms: C_65  and  C_66 
REMARK   33  A    between atoms: C_65  and  C_75 
REMARK   34  A    between atoms: C_66  and  C_67 
REMARK   35  A    between atoms: C_67  and  C_68 
REMARK   36  A    between atoms: C_67  and  C_79 
REMARK   37  A    between atoms: C_68  and  C_69 
REMARK   38  A    between atoms: C_69  and  C_70 
REMARK   39  A    between atoms: C_69  and  C_83 
REMARK   40  A    between atoms: C_70  and  C_71 
REMARK   41  A    between atoms: C_71  and  C_72 
REMARK   42  A    between atoms: C_71  and  C_87 
REMARK   43  A    between atoms: C_72  and  C_73 
REMARK   44  A    between atoms: C_73  and  C_91 
REMARK   45  A    between atoms: C_75  and  C_76 
REMARK   46  A    between atoms: C_76  and  C_77 
REMARK   47  A    between atoms: C_77  and  N_95 
REMARK   48  A    between atoms: C_79  and  C_80 
REMARK   49  A    between atoms: C_80  and  C_81 
REMARK   50  A    between atoms: C_81  and  N_96 
REMARK   51  A    between atoms: C_83  and  C_84 
REMARK   52  A    between atoms: C_84  and  C_85 
REMARK   53  A    between atoms: C_85  and  N_97 
REMARK   54  A    between atoms: C_87  and  C_88 
REMARK   55  A    between atoms: C_88  and  C_89 
REMARK   56  A    between atoms: C_89  and  N_98 
REMARK   57  A    between atoms: C_91  and  C_92 
REMARK   58  A    between atoms: C_92  and  C_93 
REMARK   59  A    between atoms: C_93  and  N_99 
REMARK   60  A    between atoms: N_118  and  C_121 
REMARK   61  A    between atoms: C_121  and  C_127 
REMARK   62  A    between atoms: C_122  and  C_127 
REMARK   63  A    between atoms: C_122  and  C_134 
REMARK   64  A    between atoms: N_124  and  C_131 
REMARK   65  A    between atoms: C_128  and  C_129 
REMARK   66  A    between atoms: C_128  and  C_138 
REMARK   67  A    between atoms: C_129  and  C_131 
REMARK   68  A    between atoms: N_133  and  C_144 
REMARK   69  A    between atoms: C_134  and  C_145 
REMARK   70  A    between atoms: C_134  and  C_151 
REMARK   71  A    between atoms: C_136  and  C_144 
REMARK   72  A    between atoms: C_136  and  C_148 
REMARK   73  A    between atoms: C_138  and  C_154 
REMARK   74  A    between atoms: C_138  and  C_145 
REMARK   75  A    between atoms: C_140  and  C_148 
REMARK   76  A    between atoms: C_140  and  C_141 
REMARK   77  A    between atoms: C_141  and  C_155 
REMARK   78  A    between atoms: C_142  and  C_153 
REMARK   79  A    between atoms: C_142  and  C_151 
REMARK   80  A    between atoms: C_142  and  C_152 
REMARK   81  A    between atoms: C_143  and  N_149 
REMARK   82  A    between atoms: C_143  and  C_146 
REMARK   83  A    between atoms: C_146  and  C_152 
REMARK   84  A    between atoms: C_154  and  C_155 
REMARK   85  A    between atoms: C_155  and  C_161 
REMARK   86  A    between atoms: C_158  and  C_163 
REMARK   87  A    between atoms: C_158  and  C_161 
REMARK   88  A    between atoms: N_159  and  C_163 
ROOT
HETATM    1  C   UNL     1       2.931  -6.550  -3.507  1.00  0.00     0.187 C 
HETATM    2  C   UNL     1       1.940  -6.355  -2.339  1.00  0.00     0.180 C 
HETATM    3  C   UNL     1       3.189  -5.215  -4.238  1.00  0.00     0.183 C 
HETATM    4  C   UNL     1       1.873  -4.440  -4.491  1.00  0.00     0.204 C 
HETATM    5  C   UNL     1       1.080  -4.234  -3.153  1.00  0.00     0.292 C 
HETATM    6  O   UNL     1       1.684  -4.962  -2.077  1.00  0.00    -0.348 OA
ENDROOT
BRANCH   1   7
HETATM    7  O   UNL     1       4.168  -7.042  -2.972  1.00  0.00    -0.348 OA
BRANCH   7   8
HETATM    8  C   UNL     1       4.532  -8.363  -3.397  1.00  0.00     0.292 C 
HETATM    9  O   UNL     1       3.356  -9.161  -3.294  1.00  0.00    -0.348 OA
HETATM   10  C   UNL     1       3.521 -10.583  -3.404  1.00  0.00     0.180 C 
HETATM   11  C   UNL     1       4.753 -11.156  -2.672  1.00  0.00     0.187 C 
HETATM   12  C   UNL     1       5.391 -10.128  -1.745  1.00  0.00     0.183 C 
HETATM   13  C   UNL     1       5.747  -8.874  -2.549  1.00  0.00     0.204 C 
BRANCH  10  14
HETATM   14  C   UNL     1       3.510 -10.959  -4.895  1.00  0.00     0.198 C 
BRANCH  14  15
HETATM   15  O   UNL     1       2.461 -10.272  -5.576  1.00  0.00    -0.398 OA
HETATM   16  H   UNL     1       2.626 -10.385  -6.532  1.00  0.00     0.209 HD
ENDBRANCH  14  15
ENDBRANCH  10  14
BRANCH  11  17
HETATM   17  O   UNL     1       4.352 -12.262  -1.848  1.00  0.00    -0.348 OA
BRANCH  17  18
HETATM   18  C   UNL     1       2.941 -12.436  -1.785  1.00  0.00     0.292 C 
HETATM   19  O   UNL     1       2.496 -12.127  -0.458  1.00  0.00    -0.351 OA
HETATM   20  C   UNL     1       1.082 -11.851  -0.404  1.00  0.00     0.150 C 
HETATM   21  C   UNL     1       0.313 -12.729  -1.409  1.00  0.00     0.068 C 
HETATM   22  C   UNL     1       1.043 -14.070  -1.586  1.00  0.00     0.154 C 
HETATM   23  C   UNL     1       2.478 -13.894  -2.189  1.00  0.00     0.205 C 
BRANCH  20  24
HETATM   24  C   UNL     1       0.817 -10.342  -0.518  1.00  0.00     0.196 C 
BRANCH  24  25
HETATM   25  O   UNL     1       1.776  -9.583   0.214  1.00  0.00    -0.398 OA
HETATM   26  H   UNL     1       1.769  -9.863   1.143  1.00  0.00     0.209 HD
ENDBRANCH  24  25
ENDBRANCH  20  24
BRANCH  22  27
HETATM   27  O   UNL     1       1.125 -14.678  -0.286  1.00  0.00    -0.393 OA
HETATM   28  H   UNL     1       0.499 -14.206   0.297  1.00  0.00     0.210 HD
ENDBRANCH  22  27
BRANCH  23  29
HETATM   29  O   UNL     1       3.407 -14.969  -1.714  1.00  0.00    -0.377 OA
BRANCH  29  30
HETATM   30  C   UNL     1       4.006 -15.876  -2.730  1.00  0.00     0.185 C 
BRANCH  30  31
HETATM   31  C   UNL     1       4.877 -17.095  -2.128  1.00  0.00     0.039 C 
HETATM   32  C   UNL     1       4.936 -18.228  -3.164  1.00  0.00     0.025 C 
BRANCH  31  33
HETATM   33  C   UNL     1       4.304 -17.630  -0.706  1.00  0.00     0.036 C 
BRANCH  33  34
HETATM   34  C   UNL     1       4.562 -19.116  -0.087  1.00  0.00     0.019 C 
HETATM   35  C   UNL     1       3.289 -19.899  -0.508  1.00  0.00     0.023 C 
BRANCH  34  36
HETATM   36  C   UNL     1       4.652 -19.005   1.529  1.00  0.00     0.033 C 
BRANCH  36  37
HETATM   37  C   UNL     1       3.926 -19.941   2.664  1.00  0.00     0.019 C 
HETATM   38  C   UNL     1       4.439 -21.385   2.545  1.00  0.00     0.023 C 
BRANCH  37  39
HETATM   39  C   UNL     1       2.362 -19.902   2.312  1.00  0.00     0.033 C 
BRANCH  39  40
HETATM   40  C   UNL     1       1.194 -21.010   2.548  1.00  0.00     0.019 C 
HETATM   41  C   UNL     1       1.613 -22.213   1.660  1.00  0.00     0.023 C 
BRANCH  40  42
HETATM   42  C   UNL     1       0.944 -21.507   4.012  1.00  0.00     0.033 C 
BRANCH  42  43
HETATM   43  C   UNL     1       0.245 -20.702   5.173  1.00  0.00     0.014 C 
HETATM   44  C   UNL     1      -1.197 -21.269   5.291  1.00  0.00     0.023 C 
HETATM   45  C   UNL     1       0.044 -19.202   4.880  1.00  0.00     0.023 C 
BRANCH  43  46
HETATM   46  C   UNL     1       0.996 -20.837   6.520  1.00  0.00     0.136 C 
HETATM   47  O   UNL     1       1.662 -19.891   6.952  1.00  0.00    -0.297 OA
BRANCH  46  48
HETATM   48  C   UNL     1       1.001 -22.163   7.274  1.00  0.00     0.109 C 
BRANCH  48  49
HETATM   49  C   UNL     1       2.278 -22.960   6.964  1.00  0.00     0.279 C 
BRANCH  49  50
HETATM   50  N   UNL     1       2.285 -24.298   7.593  1.00  0.00     0.080 N 
HETATM   51  C   UNL     1       2.351 -25.371   6.600  1.00  0.00     0.309 C 
HETATM   52  C   UNL     1       3.423 -24.419   8.511  1.00  0.00     0.309 C 
ENDBRANCH  49  50
ENDBRANCH  48  49
ENDBRANCH  46  48
ENDBRANCH  43  46
ENDBRANCH  42  43
ENDBRANCH  40  42
BRANCH  40  53
HETATM   53  C   UNL     1      -0.112 -20.440   1.903  1.00  0.00     0.137 C 
HETATM   54  O   UNL     1      -1.126 -21.120   1.792  1.00  0.00    -0.297 OA
BRANCH  53  55
HETATM   55  C   UNL     1      -0.046 -19.085   1.227  1.00  0.00     0.109 C 
BRANCH  55  56
HETATM   56  C   UNL     1      -0.381 -19.147  -0.264  1.00  0.00     0.279 C 
BRANCH  56  57
HETATM   57  N   UNL     1      -0.171 -17.811  -0.861  1.00  0.00     0.080 N 
HETATM   58  C   UNL     1       0.671 -17.898  -2.057  1.00  0.00     0.309 C 
HETATM   59  C   UNL     1      -1.439 -17.167  -1.192  1.00  0.00     0.309 C 
ENDBRANCH  56  57
ENDBRANCH  55  56
ENDBRANCH  53  55
ENDBRANCH  40  53
ENDBRANCH  39  40
ENDBRANCH  37  39
BRANCH  37  60
HETATM   60  C   UNL     1       4.103 -19.534   4.152  1.00  0.00     0.137 C 
HETATM   61  O   UNL     1       3.758 -18.405   4.523  1.00  0.00    -0.297 OA
BRANCH  60  62
HETATM   62  C   UNL     1       4.658 -20.487   5.182  1.00  0.00     0.109 C 
BRANCH  62  63
HETATM   63  C   UNL     1       5.447 -19.800   6.307  1.00  0.00     0.279 C 
BRANCH  63  64
HETATM   64  N   UNL     1       5.752 -20.735   7.410  1.00  0.00     0.080 N 
HETATM   65  C   UNL     1       5.914 -22.107   6.922  1.00  0.00     0.309 C 
HETATM   66  C   UNL     1       6.979 -20.318   8.096  1.00  0.00     0.309 C 
ENDBRANCH  63  64
ENDBRANCH  62  63
ENDBRANCH  60  62
ENDBRANCH  37  60
ENDBRANCH  36  37
ENDBRANCH  34  36
BRANCH  34  67
HETATM   67  C   UNL     1       5.817 -19.916  -0.547  1.00  0.00     0.137 C 
HETATM   68  O   UNL     1       5.647 -20.946  -1.211  1.00  0.00    -0.297 OA
BRANCH  67  69
HETATM   69  C   UNL     1       7.246 -19.493  -0.179  1.00  0.00     0.109 C 
BRANCH  69  70
HETATM   70  C   UNL     1       8.325 -20.356  -0.879  1.00  0.00     0.279 C 
BRANCH  70  71
HETATM   71  N   UNL     1       9.409 -19.697  -1.636  1.00  0.00     0.080 N 
HETATM   72  C   UNL     1       9.066 -19.449  -3.028  1.00  0.00     0.309 C 
HETATM   73  C   UNL     1       9.725 -18.407  -1.004  1.00  0.00     0.309 C 
ENDBRANCH  70  71
ENDBRANCH  69  70
ENDBRANCH  67  69
ENDBRANCH  34  67
ENDBRANCH  33  34
ENDBRANCH  31  33
BRANCH  31  74
HETATM   74  C   UNL     1       6.244 -16.433  -1.818  1.00  0.00     0.139 C 
HETATM   75  O   UNL     1       6.479 -15.976  -0.692  1.00  0.00    -0.297 OA
BRANCH  74  76
HETATM   76  C   UNL     1       7.263 -16.201  -2.912  1.00  0.00     0.109 C 
BRANCH  76  77
HETATM   77  C   UNL     1       8.047 -14.939  -2.601  1.00  0.00     0.279 C 
BRANCH  77  78
HETATM   78  N   UNL     1       7.361 -13.687  -2.952  1.00  0.00     0.080 N 
HETATM   79  C   UNL     1       6.819 -13.739  -4.310  1.00  0.00     0.309 C 
HETATM   80  C   UNL     1       8.294 -12.560  -2.837  1.00  0.00     0.309 C 
ENDBRANCH  77  78
ENDBRANCH  76  77
ENDBRANCH  74  76
ENDBRANCH  31  74
ENDBRANCH  30  31
ENDBRANCH  29  30
ENDBRANCH  23  29
ENDBRANCH  17  18
ENDBRANCH  11  17
BRANCH  12  81
HETATM   81  O   UNL     1       4.518  -9.822  -0.649  1.00  0.00    -0.390 OA
HETATM   82  H   UNL     1       4.284 -10.692  -0.263  1.00  0.00     0.210 HD
ENDBRANCH  12  81
BRANCH  13  83
HETATM   83  O   UNL     1       6.383  -7.875  -1.665  1.00  0.00    -0.388 OA
HETATM   84  H   UNL     1       7.038  -8.314  -1.100  1.00  0.00     0.210 HD
ENDBRANCH  13  83
ENDBRANCH   7   8
ENDBRANCH   1   7
BRANCH   2  85
HETATM   85  C   UNL     1       0.648  -7.160  -2.572  1.00  0.00     0.198 C 
BRANCH  85  86
HETATM   86  O   UNL     1       0.788  -8.075  -3.651  1.00  0.00    -0.398 OA
HETATM   87  H   UNL     1       0.559  -8.964  -3.328  1.00  0.00     0.209 HD
ENDBRANCH  85  86
ENDBRANCH   2  85
BRANCH   3  88
HETATM   88  O   UNL     1       4.109  -4.397  -3.498  1.00  0.00    -0.390 OA
HETATM   89  H   UNL     1       5.000  -4.782  -3.629  1.00  0.00     0.210 HD
ENDBRANCH   3  88
BRANCH   4  90
HETATM   90  O   UNL     1       2.124  -3.174  -5.218  1.00  0.00    -0.388 OA
HETATM   91  H   UNL     1       2.798  -3.321  -5.899  1.00  0.00     0.210 HD
ENDBRANCH   4  90
BRANCH   5  92
HETATM   92  O   UNL     1       1.078  -2.847  -2.753  1.00  0.00    -0.348 OA
BRANCH  92  93
HETATM   93  C   UNL     1       0.352  -2.524  -1.531  1.00  0.00     0.187 C 
HETATM   94  C   UNL     1       1.224  -1.664  -0.599  1.00  0.00     0.180 C 
HETATM   95  O   UNL     1       0.610  -0.426  -0.243  1.00  0.00    -0.348 OA
HETATM   96  C   UNL     1      -0.752  -0.462   0.175  1.00  0.00     0.292 C 
HETATM   97  C   UNL     1      -1.778  -1.124  -0.848  1.00  0.00     0.208 C 
HETATM   98  C   UNL     1      -0.909  -1.728  -1.991  1.00  0.00     0.183 C 
BRANCH  94  99
HETATM   99  C   UNL     1       1.658  -2.390   0.683  1.00  0.00     0.198 C 
BRANCH  99 100
HETATM  100  O   UNL     1       1.231  -3.751   0.653  1.00  0.00    -0.398 OA
HETATM  101  H   UNL     1       1.757  -4.242   1.314  1.00  0.00     0.209 HD
ENDBRANCH  99 100
ENDBRANCH  94  99
BRANCH  96 102
HETATM  102  O   UNL     1      -1.073   0.915   0.369  1.00  0.00    -0.348 OA
BRANCH 102 103
HETATM  103  C   UNL     1      -0.287   1.838  -0.369  1.00  0.00     0.187 C 
HETATM  104  C   UNL     1      -1.136   3.068  -0.751  1.00  0.00     0.176 C 
HETATM  105  O   UNL     1      -0.356   4.287  -0.792  1.00  0.00    -0.378 OA
HETATM  106  C   UNL     1       0.980   4.094  -1.268  1.00  0.00     0.202 C 
HETATM  107  C   UNL     1       1.809   3.218  -0.302  1.00  0.00     0.173 C 
HETATM  108  C   UNL     1       0.888   2.288   0.518  1.00  0.00     0.180 C 
BRANCH 104 109
HETATM  109  C   UNL     1      -1.868   2.902  -2.089  1.00  0.00     0.198 C 
BRANCH 109 110
HETATM  110  O   UNL     1      -1.143   2.007  -2.932  1.00  0.00    -0.398 OA
HETATM  111  H   UNL     1      -1.290   2.315  -3.848  1.00  0.00     0.209 HD
ENDBRANCH 109 110
ENDBRANCH 104 109
BRANCH 107 112
HETATM  112  O   UNL     1       2.660   4.034   0.584  1.00  0.00    -0.391 OA
HETATM  113  H   UNL     1       2.136   4.347   1.338  1.00  0.00     0.210 HD
ENDBRANCH 107 112
BRANCH 108 114
HETATM  114  O   UNL     1       0.440   2.961   1.711  1.00  0.00    -0.390 OA
HETATM  115  H   UNL     1       0.107   2.282   2.325  1.00  0.00     0.210 HD
ENDBRANCH 108 114
ENDBRANCH 102 103
ENDBRANCH  96 102
BRANCH  97 116
HETATM  116  O   UNL     1      -2.802  -0.111  -1.284  1.00  0.00    -0.369 OA
BRANCH 116 117
HETATM  117  C   UNL     1      -4.257  -0.297  -1.358  1.00  0.00     0.168 C 
BRANCH 117 118
HETATM  118  C   UNL     1      -5.168  -0.339  -0.036  1.00  0.00     0.046 C 
HETATM  119  C   UNL     1      -6.105   0.875  -0.146  1.00  0.00     0.026 C 
BRANCH 118 120
HETATM  120  C   UNL     1      -4.493  -0.407   1.459  1.00  0.00     0.036 C 
BRANCH 120 121
HETATM  121  C   UNL     1      -5.374  -0.637   2.852  1.00  0.00     0.019 C 
HETATM  122  C   UNL     1      -4.453   0.046   3.900  1.00  0.00     0.023 C 
BRANCH 121 123
HETATM  123  C   UNL     1      -6.803  -0.016   2.932  1.00  0.00     0.137 C 
HETATM  124  O   UNL     1      -7.766  -0.722   2.608  1.00  0.00    -0.297 OA
BRANCH 123 125
HETATM  125  C   UNL     1      -7.042   1.442   3.371  1.00  0.00     0.109 C 
BRANCH 125 126
HETATM  126  C   UNL     1      -7.502   1.565   4.842  1.00  0.00     0.279 C 
BRANCH 126 127
HETATM  127  N   UNL     1      -6.776   2.462   5.763  1.00  0.00     0.080 N 
HETATM  128  C   UNL     1      -7.748   3.257   6.525  1.00  0.00     0.309 C 
HETATM  129  C   UNL     1      -5.870   3.372   5.085  1.00  0.00     0.309 C 
ENDBRANCH 126 127
ENDBRANCH 125 126
ENDBRANCH 123 125
ENDBRANCH 121 123
BRANCH 121 130
HETATM  130  C   UNL     1      -5.591  -2.217   3.246  1.00  0.00     0.033 C 
BRANCH 130 131
HETATM  131  C   UNL     1      -5.837  -2.861   4.769  1.00  0.00     0.019 C 
HETATM  132  C   UNL     1      -4.472  -3.042   5.457  1.00  0.00     0.023 C 
BRANCH 131 133
HETATM  133  C   UNL     1      -6.734  -2.077   5.769  1.00  0.00     0.137 C 
HETATM  134  O   UNL     1      -6.213  -1.311   6.589  1.00  0.00    -0.297 OA
BRANCH 133 135
HETATM  135  C   UNL     1      -8.238  -2.204   5.768  1.00  0.00     0.109 C 
BRANCH 135 136
HETATM  136  C   UNL     1      -8.914  -1.834   7.100  1.00  0.00     0.279 C 
BRANCH 136 137
HETATM  137  N   UNL     1     -10.095  -0.966   6.899  1.00  0.00     0.080 N 
HETATM  138  C   UNL     1     -10.329  -0.752   5.467  1.00  0.00     0.309 C 
HETATM  139  C   UNL     1      -9.929   0.330   7.560  1.00  0.00     0.309 C 
ENDBRANCH 136 137
ENDBRANCH 135 136
ENDBRANCH 133 135
ENDBRANCH 131 133
BRANCH 131 140
HETATM  140  C   UNL     1      -6.510  -4.308   4.567  1.00  0.00     0.033 C 
BRANCH 140 141
HETATM  141  C   UNL     1      -5.949  -5.808   4.945  1.00  0.00     0.019 C 
HETATM  142  C   UNL     1      -4.700  -5.545   5.830  1.00  0.00     0.023 C 
BRANCH 141 143
HETATM  143  C   UNL     1      -6.906  -6.806   5.693  1.00  0.00     0.033 C 
BRANCH 143 144
HETATM  144  C   UNL     1      -8.090  -6.431   6.672  1.00  0.00     0.014 C 
HETATM  145  C   UNL     1      -9.211  -5.812   5.790  1.00  0.00     0.023 C 
HETATM  146  C   UNL     1      -7.754  -5.322   7.692  1.00  0.00     0.023 C 
BRANCH 144 147
HETATM  147  C   UNL     1      -8.633  -7.654   7.457  1.00  0.00     0.136 C 
HETATM  148  O   UNL     1      -7.847  -8.441   7.991  1.00  0.00    -0.297 OA
BRANCH 147 149
HETATM  149  C   UNL     1     -10.131  -7.950   7.494  1.00  0.00     0.109 C 
BRANCH 149 150
HETATM  150  C   UNL     1     -10.636  -8.048   8.944  1.00  0.00     0.279 C 
BRANCH 150 151
HETATM  151  N   UNL     1     -10.856  -6.725   9.566  1.00  0.00     0.080 N 
HETATM  152  C   UNL     1     -11.586  -5.815   8.682  1.00  0.00     0.309 C 
HETATM  153  C   UNL     1     -11.599  -6.874  10.823  1.00  0.00     0.309 C 
ENDBRANCH 150 151
ENDBRANCH 149 150
ENDBRANCH 147 149
ENDBRANCH 144 147
ENDBRANCH 143 144
ENDBRANCH 141 143
BRANCH 141 154
HETATM  154  C   UNL     1      -5.408  -6.440   3.623  1.00  0.00     0.137 C 
HETATM  155  O   UNL     1      -4.504  -7.282   3.631  1.00  0.00    -0.297 OA
BRANCH 154 156
HETATM  156  C   UNL     1      -5.870  -5.863   2.302  1.00  0.00     0.109 C 
BRANCH 156 157
HETATM  157  C   UNL     1      -6.629  -6.868   1.433  1.00  0.00     0.279 C 
BRANCH 157 158
HETATM  158  N   UNL     1      -7.548  -7.649   2.289  1.00  0.00     0.080 N 
HETATM  159  C   UNL     1      -7.578  -9.057   1.903  1.00  0.00     0.309 C 
HETATM  160  C   UNL     1      -8.903  -7.094   2.249  1.00  0.00     0.309 C 
ENDBRANCH 157 158
ENDBRANCH 156 157
ENDBRANCH 154 156
ENDBRANCH 141 154
ENDBRANCH 140 141
ENDBRANCH 131 140
ENDBRANCH 130 131
ENDBRANCH 121 130
ENDBRANCH 120 121
ENDBRANCH 118 120
BRANCH 118 161
HETATM  161  C   UNL     1      -5.821  -1.737  -0.231  1.00  0.00     0.139 C 
HETATM  162  O   UNL     1      -5.142  -2.773  -0.240  1.00  0.00    -0.297 OA
BRANCH 161 163
HETATM  163  C   UNL     1      -7.294  -1.849  -0.539  1.00  0.00     0.109 C 
BRANCH 163 164
HETATM  164  C   UNL     1      -7.838  -3.120   0.073  1.00  0.00     0.279 C 
BRANCH 164 165
HETATM  165  N   UNL     1      -9.304  -3.214   0.137  1.00  0.00     0.080 N 
HETATM  166  C   UNL     1      -9.754  -3.515   1.497  1.00  0.00     0.309 C 
HETATM  167  C   UNL     1      -9.764  -4.278  -0.761  1.00  0.00     0.309 C 
ENDBRANCH 164 165
ENDBRANCH 163 164
ENDBRANCH 161 163
ENDBRANCH 118 161
ENDBRANCH 117 118
ENDBRANCH 116 117
ENDBRANCH  97 116
BRANCH  98 168
HETATM  168  O   UNL     1      -0.482  -0.664  -2.869  1.00  0.00    -0.390 OA
HETATM  169  H   UNL     1      -0.153  -1.095  -3.683  1.00  0.00     0.210 HD
ENDBRANCH  98 168
ENDBRANCH  92  93
ENDBRANCH   5  92
TORSDOF 88
ENDMDL
MODEL 8
REMARK VINA RESULT:      -5.0     10.328     21.631
REMARK WARNING: 32 MAX_TORS EXCEEDED!!!
REMARK  88 active torsions:
REMARK  status: ('A' for Active; 'I' for Inactive)
REMARK    1  A    between atoms: C_1  and  O_28 
REMARK    2  A    between atoms: C_2  and  C_6 
REMARK    3  A    between atoms: C_3  and  O_8 
REMARK    4  A    between atoms: C_4  and  O_10 
REMARK    5  A    between atoms: C_5  and  O_11 
REMARK    6  A    between atoms: C_6  and  O_58 
REMARK    7  A    between atoms: O_11  and  C_18 
REMARK    8  A    between atoms: O_13  and  C_16 
REMARK    9  A    between atoms: C_15  and  C_21 
REMARK   10  A    between atoms: O_17  and  C_20 
REMARK   11  A    between atoms: O_17  and  C_39 
REMARK   12  A    between atoms: O_19  and  C_22 
REMARK   13  A    between atoms: O_19  and  C_153 
REMARK   14  A    between atoms: C_21  and  O_60 
REMARK   15  A    between atoms: O_24  and  C_27 
REMARK   16  A    between atoms: C_26  and  C_32 
REMARK   17  A    between atoms: O_28  and  C_31 
REMARK   18  A    between atoms: C_29  and  O_49 
REMARK   19  A    between atoms: O_30  and  C_33 
REMARK   20  A    between atoms: C_32  and  O_56 
REMARK   21  A    between atoms: O_35  and  C_38 
REMARK   22  A    between atoms: C_37  and  C_42 
REMARK   23  A    between atoms: O_40  and  C_43 
REMARK   24  A    between atoms: C_42  and  O_62 
REMARK   25  A    between atoms: O_45  and  C_48 
REMARK   26  A    between atoms: C_47  and  C_53 
REMARK   27  A    between atoms: O_49  and  C_52 
REMARK   28  A    between atoms: O_51  and  C_54 
REMARK   29  A    between atoms: O_51  and  C_64 
REMARK   30  A    between atoms: C_53  and  O_55 
REMARK   31  A    between atoms: C_64  and  C_65 
REMARK   32  A    between atoms: C_65  and  C_66 
REMARK   33  A    between atoms: C_65  and  C_75 
REMARK   34  A    between atoms: C_66  and  C_67 
REMARK   35  A    between atoms: C_67  and  C_68 
REMARK   36  A    between atoms: C_67  and  C_79 
REMARK   37  A    between atoms: C_68  and  C_69 
REMARK   38  A    between atoms: C_69  and  C_70 
REMARK   39  A    between atoms: C_69  and  C_83 
REMARK   40  A    between atoms: C_70  and  C_71 
REMARK   41  A    between atoms: C_71  and  C_72 
REMARK   42  A    between atoms: C_71  and  C_87 
REMARK   43  A    between atoms: C_72  and  C_73 
REMARK   44  A    between atoms: C_73  and  C_91 
REMARK   45  A    between atoms: C_75  and  C_76 
REMARK   46  A    between atoms: C_76  and  C_77 
REMARK   47  A    between atoms: C_77  and  N_95 
REMARK   48  A    between atoms: C_79  and  C_80 
REMARK   49  A    between atoms: C_80  and  C_81 
REMARK   50  A    between atoms: C_81  and  N_96 
REMARK   51  A    between atoms: C_83  and  C_84 
REMARK   52  A    between atoms: C_84  and  C_85 
REMARK   53  A    between atoms: C_85  and  N_97 
REMARK   54  A    between atoms: C_87  and  C_88 
REMARK   55  A    between atoms: C_88  and  C_89 
REMARK   56  A    between atoms: C_89  and  N_98 
REMARK   57  A    between atoms: C_91  and  C_92 
REMARK   58  A    between atoms: C_92  and  C_93 
REMARK   59  A    between atoms: C_93  and  N_99 
REMARK   60  A    between atoms: N_118  and  C_121 
REMARK   61  A    between atoms: C_121  and  C_127 
REMARK   62  A    between atoms: C_122  and  C_127 
REMARK   63  A    between atoms: C_122  and  C_134 
REMARK   64  A    between atoms: N_124  and  C_131 
REMARK   65  A    between atoms: C_128  and  C_129 
REMARK   66  A    between atoms: C_128  and  C_138 
REMARK   67  A    between atoms: C_129  and  C_131 
REMARK   68  A    between atoms: N_133  and  C_144 
REMARK   69  A    between atoms: C_134  and  C_145 
REMARK   70  A    between atoms: C_134  and  C_151 
REMARK   71  A    between atoms: C_136  and  C_144 
REMARK   72  A    between atoms: C_136  and  C_148 
REMARK   73  A    between atoms: C_138  and  C_154 
REMARK   74  A    between atoms: C_138  and  C_145 
REMARK   75  A    between atoms: C_140  and  C_148 
REMARK   76  A    between atoms: C_140  and  C_141 
REMARK   77  A    between atoms: C_141  and  C_155 
REMARK   78  A    between atoms: C_142  and  C_153 
REMARK   79  A    between atoms: C_142  and  C_151 
REMARK   80  A    between atoms: C_142  and  C_152 
REMARK   81  A    between atoms: C_143  and  N_149 
REMARK   82  A    between atoms: C_143  and  C_146 
REMARK   83  A    between atoms: C_146  and  C_152 
REMARK   84  A    between atoms: C_154  and  C_155 
REMARK   85  A    between atoms: C_155  and  C_161 
REMARK   86  A    between atoms: C_158  and  C_163 
REMARK   87  A    between atoms: C_158  and  C_161 
REMARK   88  A    between atoms: N_159  and  C_163 
ROOT
HETATM    1  C   UNL     1       2.566  -7.323  -2.851  1.00  0.00     0.187 C 
HETATM    2  C   UNL     1       1.677  -6.886  -1.666  1.00  0.00     0.180 C 
HETATM    3  C   UNL     1       2.872  -6.129  -3.778  1.00  0.00     0.183 C 
HETATM    4  C   UNL     1       1.605  -5.286  -4.061  1.00  0.00     0.204 C 
HETATM    5  C   UNL     1       0.926  -4.832  -2.722  1.00  0.00     0.292 C 
HETATM    6  O   UNL     1       1.546  -5.454  -1.591  1.00  0.00    -0.348 OA
ENDROOT
BRANCH   1   7
HETATM    7  O   UNL     1       3.796  -7.840  -2.324  1.00  0.00    -0.348 OA
BRANCH   7   8
HETATM    8  C   UNL     1       4.181  -9.127  -2.829  1.00  0.00     0.292 C 
HETATM    9  O   UNL     1       2.991  -9.910  -2.892  1.00  0.00    -0.348 OA
HETATM   10  C   UNL     1       3.150 -11.321  -3.110  1.00  0.00     0.180 C 
HETATM   11  C   UNL     1       4.309 -11.975  -2.330  1.00  0.00     0.187 C 
HETATM   12  C   UNL     1       4.878 -11.041  -1.268  1.00  0.00     0.183 C 
HETATM   13  C   UNL     1       5.314  -9.730  -1.930  1.00  0.00     0.204 C 
BRANCH  10  14
HETATM   14  C   UNL     1       3.260 -11.569  -4.623  1.00  0.00     0.198 C 
BRANCH  14  15
HETATM   15  O   UNL     1       4.581 -11.991  -4.965  1.00  0.00    -0.398 OA
HETATM   16  H   UNL     1       5.172 -11.236  -4.781  1.00  0.00     0.209 HD
ENDBRANCH  14  15
ENDBRANCH  10  14
BRANCH  11  17
HETATM   17  O   UNL     1       3.828 -13.139  -1.639  1.00  0.00    -0.348 OA
BRANCH  17  18
HETATM   18  C   UNL     1       2.410 -13.263  -1.663  1.00  0.00     0.292 C 
HETATM   19  O   UNL     1       1.900 -12.982  -0.353  1.00  0.00    -0.351 OA
HETATM   20  C   UNL     1       0.496 -12.656  -0.370  1.00  0.00     0.150 C 
HETATM   21  C   UNL     1      -0.244 -13.472  -1.447  1.00  0.00     0.068 C 
HETATM   22  C   UNL     1       0.449 -14.832  -1.629  1.00  0.00     0.154 C 
HETATM   23  C   UNL     1       1.921 -14.689  -2.143  1.00  0.00     0.205 C 
BRANCH  20  24
HETATM   24  C   UNL     1       0.291 -11.135  -0.446  1.00  0.00     0.196 C 
BRANCH  24  25
HETATM   25  O   UNL     1      -0.440 -10.647   0.676  1.00  0.00    -0.398 OA
HETATM   26  H   UNL     1      -0.295 -11.232   1.436  1.00  0.00     0.209 HD
ENDBRANCH  24  25
ENDBRANCH  20  24
BRANCH  22  27
HETATM   27  O   UNL     1       0.434 -15.485  -0.349  1.00  0.00    -0.393 OA
HETATM   28  H   UNL     1       0.974 -14.944   0.261  1.00  0.00     0.210 HD
ENDBRANCH  22  27
BRANCH  23  29
HETATM   29  O   UNL     1       2.784 -15.813  -1.654  1.00  0.00    -0.377 OA
BRANCH  29  30
HETATM   30  C   UNL     1       3.103 -16.914  -2.602  1.00  0.00     0.185 C 
BRANCH  30  31
HETATM   31  C   UNL     1       3.997 -18.108  -1.985  1.00  0.00     0.039 C 
HETATM   32  C   UNL     1       3.614 -19.427  -2.673  1.00  0.00     0.025 C 
BRANCH  31  33
HETATM   33  C   UNL     1       3.853 -18.226  -0.372  1.00  0.00     0.036 C 
BRANCH  33  34
HETATM   34  C   UNL     1       4.169 -19.563   0.506  1.00  0.00     0.019 C 
HETATM   35  C   UNL     1       2.848 -20.373   0.403  1.00  0.00     0.023 C 
BRANCH  34  36
HETATM   36  C   UNL     1       4.451 -19.130   2.044  1.00  0.00     0.033 C 
BRANCH  36  37
HETATM   37  C   UNL     1       4.260 -20.016   3.411  1.00  0.00     0.019 C 
HETATM   38  C   UNL     1       4.861 -21.416   3.205  1.00  0.00     0.023 C 
BRANCH  37  39
HETATM   39  C   UNL     1       2.675 -20.143   3.618  1.00  0.00     0.033 C 
BRANCH  39  40
HETATM   40  C   UNL     1       1.770 -21.394   4.131  1.00  0.00     0.019 C 
HETATM   41  C   UNL     1       1.796 -22.403   2.951  1.00  0.00     0.023 C 
BRANCH  40  42
HETATM   42  C   UNL     1       2.208 -22.122   5.446  1.00  0.00     0.033 C 
BRANCH  42  43
HETATM   43  C   UNL     1       2.191 -21.522   6.904  1.00  0.00     0.014 C 
HETATM   44  C   UNL     1       0.831 -21.938   7.532  1.00  0.00     0.023 C 
HETATM   45  C   UNL     1       2.184 -19.982   6.962  1.00  0.00     0.023 C 
BRANCH  43  46
HETATM   46  C   UNL     1       3.370 -22.035   7.767  1.00  0.00     0.136 C 
HETATM   47  O   UNL     1       3.768 -21.366   8.726  1.00  0.00    -0.297 OA
BRANCH  46  48
HETATM   48  C   UNL     1       4.110 -23.313   7.386  1.00  0.00     0.109 C 
BRANCH  48  49
HETATM   49  C   UNL     1       3.923 -24.393   8.463  1.00  0.00     0.279 C 
BRANCH  49  50
HETATM   50  N   UNL     1       2.632 -25.104   8.341  1.00  0.00     0.080 N 
HETATM   51  C   UNL     1       2.360 -25.517   6.965  1.00  0.00     0.309 C 
HETATM   52  C   UNL     1       2.622 -26.286   9.211  1.00  0.00     0.309 C 
ENDBRANCH  49  50
ENDBRANCH  48  49
ENDBRANCH  46  48
ENDBRANCH  43  46
ENDBRANCH  42  43
ENDBRANCH  40  42
BRANCH  40  53
HETATM   53  C   UNL     1       0.295 -20.883   4.220  1.00  0.00     0.137 C 
HETATM   54  O   UNL     1       0.031 -19.690   4.326  1.00  0.00    -0.297 OA
BRANCH  53  55
HETATM   55  C   UNL     1      -0.811 -21.906   4.378  1.00  0.00     0.109 C 
BRANCH  55  56
HETATM   56  C   UNL     1      -1.961 -21.411   5.256  1.00  0.00     0.279 C 
BRANCH  56  57
HETATM   57  N   UNL     1      -2.628 -22.573   5.879  1.00  0.00     0.080 N 
HETATM   58  C   UNL     1      -1.838 -23.793   5.692  1.00  0.00     0.309 C 
HETATM   59  C   UNL     1      -2.871 -22.353   7.301  1.00  0.00     0.309 C 
ENDBRANCH  56  57
ENDBRANCH  55  56
ENDBRANCH  53  55
ENDBRANCH  40  53
ENDBRANCH  39  40
ENDBRANCH  37  39
BRANCH  37  60
HETATM   60  C   UNL     1       4.881 -19.459   4.721  1.00  0.00     0.137 C 
HETATM   61  O   UNL     1       4.670 -18.285   5.048  1.00  0.00    -0.297 OA
BRANCH  60  62
HETATM   62  C   UNL     1       5.718 -20.318   5.637  1.00  0.00     0.109 C 
BRANCH  62  63
HETATM   63  C   UNL     1       6.426 -19.534   6.753  1.00  0.00     0.279 C 
BRANCH  63  64
HETATM   64  N   UNL     1       6.866 -20.421   7.850  1.00  0.00     0.080 N 
HETATM   65  C   UNL     1       7.379 -21.694   7.337  1.00  0.00     0.309 C 
HETATM   66  C   UNL     1       7.910 -19.762   8.641  1.00  0.00     0.309 C 
ENDBRANCH  63  64
ENDBRANCH  62  63
ENDBRANCH  60  62
ENDBRANCH  37  60
ENDBRANCH  36  37
ENDBRANCH  34  36
BRANCH  34  67
HETATM   67  C   UNL     1       5.353 -20.482   0.079  1.00  0.00     0.137 C 
HETATM   68  O   UNL     1       5.095 -21.611  -0.354  1.00  0.00    -0.297 OA
BRANCH  67  69
HETATM   69  C   UNL     1       6.821 -20.049   0.208  1.00  0.00     0.109 C 
BRANCH  69  70
HETATM   70  C   UNL     1       7.661 -20.401  -1.045  1.00  0.00     0.279 C 
BRANCH  70  71
HETATM   71  N   UNL     1       8.819 -21.309  -0.916  1.00  0.00     0.080 N 
HETATM   72  C   UNL     1       8.457 -22.714  -0.994  1.00  0.00     0.309 C 
HETATM   73  C   UNL     1       9.781 -21.021  -1.991  1.00  0.00     0.309 C 
ENDBRANCH  70  71
ENDBRANCH  69  70
ENDBRANCH  67  69
ENDBRANCH  34  67
ENDBRANCH  33  34
ENDBRANCH  31  33
BRANCH  31  74
HETATM   74  C   UNL     1       5.449 -17.638  -2.253  1.00  0.00     0.139 C 
HETATM   75  O   UNL     1       6.095 -18.104  -3.201  1.00  0.00    -0.297 OA
BRANCH  74  76
HETATM   76  C   UNL     1       6.159 -16.714  -1.289  1.00  0.00     0.109 C 
BRANCH  76  77
HETATM   77  C   UNL     1       6.465 -15.403  -1.991  1.00  0.00     0.279 C 
BRANCH  77  78
HETATM   78  N   UNL     1       7.874 -14.988  -1.932  1.00  0.00     0.080 N 
HETATM   79  C   UNL     1       8.006 -13.535  -2.039  1.00  0.00     0.309 C 
HETATM   80  C   UNL     1       8.627 -15.632  -3.014  1.00  0.00     0.309 C 
ENDBRANCH  77  78
ENDBRANCH  76  77
ENDBRANCH  74  76
ENDBRANCH  31  74
ENDBRANCH  30  31
ENDBRANCH  29  30
ENDBRANCH  23  29
ENDBRANCH  17  18
ENDBRANCH  11  17
BRANCH  12  81
HETATM   81  O   UNL     1       3.918 -10.812  -0.227  1.00  0.00    -0.390 OA
HETATM   82  H   UNL     1       4.151 -11.455   0.475  1.00  0.00     0.210 HD
ENDBRANCH  12  81
BRANCH  13  83
HETATM   83  O   UNL     1       5.884  -8.821  -0.914  1.00  0.00    -0.388 OA
HETATM   84  H   UNL     1       6.594  -8.294  -1.313  1.00  0.00     0.210 HD
ENDBRANCH  13  83
ENDBRANCH   7   8
ENDBRANCH   1   7
BRANCH   2  85
HETATM   85  C   UNL     1       0.315  -7.603  -1.706  1.00  0.00     0.198 C 
BRANCH  85  86
HETATM   86  O   UNL     1       0.245  -8.538  -2.773  1.00  0.00    -0.398 OA
HETATM   87  H   UNL     1       0.606  -8.115  -3.573  1.00  0.00     0.209 HD
ENDBRANCH  85  86
ENDBRANCH   2  85
BRANCH   3  88
HETATM   88  O   UNL     1       3.902  -5.297  -3.218  1.00  0.00    -0.390 OA
HETATM   89  H   UNL     1       4.169  -4.666  -3.918  1.00  0.00     0.210 HD
ENDBRANCH   3  88
BRANCH   4  90
HETATM   90  O   UNL     1       1.900  -4.158  -4.975  1.00  0.00    -0.388 OA
HETATM   91  H   UNL     1       1.205  -4.097  -5.649  1.00  0.00     0.210 HD
ENDBRANCH   4  90
BRANCH   5  92
HETATM   92  O   UNL     1       1.057  -3.408  -2.525  1.00  0.00    -0.348 OA
BRANCH  92  93
HETATM   93  C   UNL     1       0.284  -2.829  -1.434  1.00  0.00     0.187 C 
HETATM   94  C   UNL     1       1.057  -1.668  -0.782  1.00  0.00     0.180 C 
HETATM   95  O   UNL     1       0.327  -0.442  -0.777  1.00  0.00    -0.348 OA
HETATM   96  C   UNL     1      -1.034  -0.488  -0.354  1.00  0.00     0.292 C 
HETATM   97  C   UNL     1      -1.977  -1.498  -1.145  1.00  0.00     0.208 C 
HETATM   98  C   UNL     1      -1.036  -2.310  -2.084  1.00  0.00     0.183 C 
BRANCH  94  99
HETATM   99  C   UNL     1       1.533  -1.969   0.647  1.00  0.00     0.198 C 
BRANCH  99 100
HETATM  100  O   UNL     1       1.605  -3.378   0.861  1.00  0.00    -0.398 OA
HETATM  101  H   UNL     1       1.784  -3.801  -0.003  1.00  0.00     0.209 HD
ENDBRANCH  99 100
ENDBRANCH  94  99
BRANCH  96 102
HETATM  102  O   UNL     1      -1.483   0.853  -0.545  1.00  0.00    -0.348 OA
BRANCH 102 103
HETATM  103  C   UNL     1      -1.368   1.706   0.584  1.00  0.00     0.187 C 
HETATM  104  C   UNL     1      -0.678   3.026   0.182  1.00  0.00     0.176 C 
HETATM  105  O   UNL     1      -1.163   4.157   0.943  1.00  0.00    -0.378 OA
HETATM  106  C   UNL     1      -1.484   3.837   2.300  1.00  0.00     0.202 C 
HETATM  107  C   UNL     1      -2.676   2.859   2.390  1.00  0.00     0.173 C 
HETATM  108  C   UNL     1      -2.785   2.012   1.103  1.00  0.00     0.180 C 
BRANCH 104 109
HETATM  109  C   UNL     1       0.850   2.966   0.301  1.00  0.00     0.198 C 
BRANCH 109 110
HETATM  110  O   UNL     1       1.387   2.146  -0.737  1.00  0.00    -0.398 OA
HETATM  111  H   UNL     1       2.174   1.708  -0.359  1.00  0.00     0.209 HD
ENDBRANCH 109 110
ENDBRANCH 104 109
BRANCH 107 112
HETATM  112  O   UNL     1      -3.943   3.563   2.668  1.00  0.00    -0.391 OA
HETATM  113  H   UNL     1      -4.662   2.917   2.744  1.00  0.00     0.210 HD
ENDBRANCH 107 112
BRANCH 108 114
HETATM  114  O   UNL     1      -3.584   2.701   0.122  1.00  0.00    -0.390 OA
HETATM  115  H   UNL     1      -3.174   3.572  -0.034  1.00  0.00     0.210 HD
ENDBRANCH 108 114
ENDBRANCH 102 103
ENDBRANCH  96 102
BRANCH  97 116
HETATM  116  O   UNL     1      -3.081  -0.743  -1.836  1.00  0.00    -0.369 OA
BRANCH 116 117
HETATM  117  C   UNL     1      -4.517  -1.051  -1.807  1.00  0.00     0.168 C 
BRANCH 117 118
HETATM  118  C   UNL     1      -5.371  -0.954  -0.451  1.00  0.00     0.046 C 
HETATM  119  C   UNL     1      -6.140   0.373  -0.544  1.00  0.00     0.026 C 
BRANCH 118 120
HETATM  120  C   UNL     1      -4.651  -1.095   1.019  1.00  0.00     0.036 C 
BRANCH 120 121
HETATM  121  C   UNL     1      -5.497  -1.158   2.450  1.00  0.00     0.019 C 
HETATM  122  C   UNL     1      -4.421  -0.652   3.451  1.00  0.00     0.023 C 
BRANCH 121 123
HETATM  123  C   UNL     1      -6.783  -0.286   2.586  1.00  0.00     0.137 C 
HETATM  124  O   UNL     1      -7.858  -0.767   2.206  1.00  0.00    -0.297 OA
BRANCH 123 125
HETATM  125  C   UNL     1      -6.749   1.149   3.147  1.00  0.00     0.109 C 
BRANCH 125 126
HETATM  126  C   UNL     1      -7.338   1.258   4.572  1.00  0.00     0.279 C 
BRANCH 126 127
HETATM  127  N   UNL     1      -6.708   2.161   5.557  1.00  0.00     0.080 N 
HETATM  128  C   UNL     1      -5.595   1.459   6.208  1.00  0.00     0.309 C 
HETATM  129  C   UNL     1      -7.625   2.620   6.585  1.00  0.00     0.309 C 
ENDBRANCH 126 127
ENDBRANCH 125 126
ENDBRANCH 123 125
ENDBRANCH 121 123
BRANCH 121 130
HETATM  130  C   UNL     1      -5.980  -2.671   2.870  1.00  0.00     0.033 C 
BRANCH 130 131
HETATM  131  C   UNL     1      -6.261  -3.259   4.410  1.00  0.00     0.019 C 
HETATM  132  C   UNL     1      -4.943  -3.215   5.204  1.00  0.00     0.023 C 
BRANCH 131 133
HETATM  133  C   UNL     1      -7.330  -2.550   5.290  1.00  0.00     0.137 C 
HETATM  134  O   UNL     1      -8.451  -2.317   4.822  1.00  0.00    -0.297 OA
BRANCH 133 135
HETATM  135  C   UNL     1      -7.054  -2.142   6.716  1.00  0.00     0.109 C 
BRANCH 135 136
HETATM  136  C   UNL     1      -8.080  -1.164   7.315  1.00  0.00     0.279 C 
BRANCH 136 137
HETATM  137  N   UNL     1      -9.168  -1.871   8.025  1.00  0.00     0.080 N 
HETATM  138  C   UNL     1      -9.719  -1.018   9.084  1.00  0.00     0.309 C 
HETATM  139  C   UNL     1      -8.700  -3.128   8.612  1.00  0.00     0.309 C 
ENDBRANCH 136 137
ENDBRANCH 135 136
ENDBRANCH 133 135
ENDBRANCH 131 133
BRANCH 131 140
HETATM  140  C   UNL     1      -6.720  -4.792   4.254  1.00  0.00     0.033 C 
BRANCH 140 141
HETATM  141  C   UNL     1      -5.875  -6.186   4.472  1.00  0.00     0.019 C 
HETATM  142  C   UNL     1      -4.571  -5.743   5.192  1.00  0.00     0.023 C 
BRANCH 141 143
HETATM  143  C   UNL     1      -6.540  -7.353   5.290  1.00  0.00     0.033 C 
BRANCH 143 144
HETATM  144  C   UNL     1      -7.683  -7.219   6.375  1.00  0.00     0.014 C 
HETATM  145  C   UNL     1      -7.243  -6.080   7.338  1.00  0.00     0.023 C 
HETATM  146  C   UNL     1      -7.846  -8.449   7.292  1.00  0.00     0.023 C 
BRANCH 144 147
HETATM  147  C   UNL     1      -9.068  -6.897   5.755  1.00  0.00     0.136 C 
HETATM  148  O   UNL     1      -9.551  -5.768   5.879  1.00  0.00    -0.297 OA
BRANCH 147 149
HETATM  149  C   UNL     1      -9.887  -7.991   5.073  1.00  0.00     0.109 C 
BRANCH 149 150
HETATM  150  C   UNL     1     -10.065  -7.692   3.575  1.00  0.00     0.279 C 
BRANCH 150 151
HETATM  151  N   UNL     1      -8.850  -7.985   2.783  1.00  0.00     0.080 N 
HETATM  152  C   UNL     1      -8.515  -9.409   2.794  1.00  0.00     0.309 C 
HETATM  153  C   UNL     1      -9.032  -7.543   1.395  1.00  0.00     0.309 C 
ENDBRANCH 150 151
ENDBRANCH 149 150
ENDBRANCH 147 149
ENDBRANCH 144 147
ENDBRANCH 143 144
ENDBRANCH 141 143
BRANCH 141 154
HETATM  154  C   UNL     1      -5.433  -6.680   3.057  1.00  0.00     0.137 C 
HETATM  155  O   UNL     1      -5.594  -5.984   2.049  1.00  0.00    -0.297 OA
BRANCH 154 156
HETATM  156  C   UNL     1      -4.978  -8.115   2.901  1.00  0.00     0.109 C 
BRANCH 156 157
HETATM  157  C   UNL     1      -3.819  -8.281   1.916  1.00  0.00     0.279 C 
BRANCH 157 158
HETATM  158  N   UNL     1      -4.365  -8.528   0.565  1.00  0.00     0.080 N 
HETATM  159  C   UNL     1      -5.421  -9.537   0.587  1.00  0.00     0.309 C 
HETATM  160  C   UNL     1      -3.308  -8.937  -0.363  1.00  0.00     0.309 C 
ENDBRANCH 157 158
ENDBRANCH 156 157
ENDBRANCH 154 156
ENDBRANCH 141 154
ENDBRANCH 140 141
ENDBRANCH 131 140
ENDBRANCH 130 131
ENDBRANCH 121 130
ENDBRANCH 120 121
ENDBRANCH 118 120
BRANCH 118 161
HETATM  161  C   UNL     1      -6.213  -2.254  -0.596  1.00  0.00     0.139 C 
HETATM  162  O   UNL     1      -5.700  -3.374  -0.481  1.00  0.00    -0.297 OA
BRANCH 161 163
HETATM  163  C   UNL     1      -7.664  -2.175  -1.007  1.00  0.00     0.109 C 
BRANCH 163 164
HETATM  164  C   UNL     1      -8.385  -3.418  -0.539  1.00  0.00     0.279 C 
BRANCH 164 165
HETATM  165  N   UNL     1      -9.487  -3.191   0.407  1.00  0.00     0.080 N 
HETATM  166  C   UNL     1      -9.271  -3.925   1.654  1.00  0.00     0.309 C 
HETATM  167  C   UNL     1     -10.746  -3.641  -0.195  1.00  0.00     0.309 C 
ENDBRANCH 164 165
ENDBRANCH 163 164
ENDBRANCH 161 163
ENDBRANCH 118 161
ENDBRANCH 117 118
ENDBRANCH 116 117
ENDBRANCH  97 116
BRANCH  98 168
HETATM  168  O   UNL     1      -0.693  -1.495  -3.226  1.00  0.00    -0.390 OA
HETATM  169  H   UNL     1      -0.689  -2.094  -3.999  1.00  0.00     0.210 HD
ENDBRANCH  98 168
ENDBRANCH  92  93
ENDBRANCH   5  92
TORSDOF 88
ENDMDL
MODEL 9
REMARK VINA RESULT:      -5.0      9.544     18.715
REMARK WARNING: 32 MAX_TORS EXCEEDED!!!
REMARK  88 active torsions:
REMARK  status: ('A' for Active; 'I' for Inactive)
REMARK    1  A    between atoms: C_1  and  O_28 
REMARK    2  A    between atoms: C_2  and  C_6 
REMARK    3  A    between atoms: C_3  and  O_8 
REMARK    4  A    between atoms: C_4  and  O_10 
REMARK    5  A    between atoms: C_5  and  O_11 
REMARK    6  A    between atoms: C_6  and  O_58 
REMARK    7  A    between atoms: O_11  and  C_18 
REMARK    8  A    between atoms: O_13  and  C_16 
REMARK    9  A    between atoms: C_15  and  C_21 
REMARK   10  A    between atoms: O_17  and  C_20 
REMARK   11  A    between atoms: O_17  and  C_39 
REMARK   12  A    between atoms: O_19  and  C_22 
REMARK   13  A    between atoms: O_19  and  C_153 
REMARK   14  A    between atoms: C_21  and  O_60 
REMARK   15  A    between atoms: O_24  and  C_27 
REMARK   16  A    between atoms: C_26  and  C_32 
REMARK   17  A    between atoms: O_28  and  C_31 
REMARK   18  A    between atoms: C_29  and  O_49 
REMARK   19  A    between atoms: O_30  and  C_33 
REMARK   20  A    between atoms: C_32  and  O_56 
REMARK   21  A    between atoms: O_35  and  C_38 
REMARK   22  A    between atoms: C_37  and  C_42 
REMARK   23  A    between atoms: O_40  and  C_43 
REMARK   24  A    between atoms: C_42  and  O_62 
REMARK   25  A    between atoms: O_45  and  C_48 
REMARK   26  A    between atoms: C_47  and  C_53 
REMARK   27  A    between atoms: O_49  and  C_52 
REMARK   28  A    between atoms: O_51  and  C_54 
REMARK   29  A    between atoms: O_51  and  C_64 
REMARK   30  A    between atoms: C_53  and  O_55 
REMARK   31  A    between atoms: C_64  and  C_65 
REMARK   32  A    between atoms: C_65  and  C_66 
REMARK   33  A    between atoms: C_65  and  C_75 
REMARK   34  A    between atoms: C_66  and  C_67 
REMARK   35  A    between atoms: C_67  and  C_68 
REMARK   36  A    between atoms: C_67  and  C_79 
REMARK   37  A    between atoms: C_68  and  C_69 
REMARK   38  A    between atoms: C_69  and  C_70 
REMARK   39  A    between atoms: C_69  and  C_83 
REMARK   40  A    between atoms: C_70  and  C_71 
REMARK   41  A    between atoms: C_71  and  C_72 
REMARK   42  A    between atoms: C_71  and  C_87 
REMARK   43  A    between atoms: C_72  and  C_73 
REMARK   44  A    between atoms: C_73  and  C_91 
REMARK   45  A    between atoms: C_75  and  C_76 
REMARK   46  A    between atoms: C_76  and  C_77 
REMARK   47  A    between atoms: C_77  and  N_95 
REMARK   48  A    between atoms: C_79  and  C_80 
REMARK   49  A    between atoms: C_80  and  C_81 
REMARK   50  A    between atoms: C_81  and  N_96 
REMARK   51  A    between atoms: C_83  and  C_84 
REMARK   52  A    between atoms: C_84  and  C_85 
REMARK   53  A    between atoms: C_85  and  N_97 
REMARK   54  A    between atoms: C_87  and  C_88 
REMARK   55  A    between atoms: C_88  and  C_89 
REMARK   56  A    between atoms: C_89  and  N_98 
REMARK   57  A    between atoms: C_91  and  C_92 
REMARK   58  A    between atoms: C_92  and  C_93 
REMARK   59  A    between atoms: C_93  and  N_99 
REMARK   60  A    between atoms: N_118  and  C_121 
REMARK   61  A    between atoms: C_121  and  C_127 
REMARK   62  A    between atoms: C_122  and  C_127 
REMARK   63  A    between atoms: C_122  and  C_134 
REMARK   64  A    between atoms: N_124  and  C_131 
REMARK   65  A    between atoms: C_128  and  C_129 
REMARK   66  A    between atoms: C_128  and  C_138 
REMARK   67  A    between atoms: C_129  and  C_131 
REMARK   68  A    between atoms: N_133  and  C_144 
REMARK   69  A    between atoms: C_134  and  C_145 
REMARK   70  A    between atoms: C_134  and  C_151 
REMARK   71  A    between atoms: C_136  and  C_144 
REMARK   72  A    between atoms: C_136  and  C_148 
REMARK   73  A    between atoms: C_138  and  C_154 
REMARK   74  A    between atoms: C_138  and  C_145 
REMARK   75  A    between atoms: C_140  and  C_148 
REMARK   76  A    between atoms: C_140  and  C_141 
REMARK   77  A    between atoms: C_141  and  C_155 
REMARK   78  A    between atoms: C_142  and  C_153 
REMARK   79  A    between atoms: C_142  and  C_151 
REMARK   80  A    between atoms: C_142  and  C_152 
REMARK   81  A    between atoms: C_143  and  N_149 
REMARK   82  A    between atoms: C_143  and  C_146 
REMARK   83  A    between atoms: C_146  and  C_152 
REMARK   84  A    between atoms: C_154  and  C_155 
REMARK   85  A    between atoms: C_155  and  C_161 
REMARK   86  A    between atoms: C_158  and  C_163 
REMARK   87  A    between atoms: C_158  and  C_161 
REMARK   88  A    between atoms: N_159  and  C_163 
ROOT
HETATM    1  C   UNL     1       6.176 -11.344  -2.318  1.00  0.00     0.187 C 
HETATM    2  C   UNL     1       4.708 -11.474  -2.781  1.00  0.00     0.180 C 
HETATM    3  C   UNL     1       6.406 -10.002  -1.592  1.00  0.00     0.183 C 
HETATM    4  C   UNL     1       5.751  -8.823  -2.351  1.00  0.00     0.204 C 
HETATM    5  C   UNL     1       4.228  -9.100  -2.605  1.00  0.00     0.292 C 
HETATM    6  O   UNL     1       3.876 -10.436  -2.230  1.00  0.00    -0.348 OA
ENDROOT
BRANCH   1   7
HETATM    7  O   UNL     1       6.461 -12.424  -1.418  1.00  0.00    -0.348 OA
BRANCH   7   8
HETATM    8  C   UNL     1       6.221 -13.737  -1.946  1.00  0.00     0.292 C 
HETATM    9  O   UNL     1       5.537 -14.464  -0.929  1.00  0.00    -0.348 OA
HETATM   10  C   UNL     1       5.422 -15.885  -1.108  1.00  0.00     0.180 C 
HETATM   11  C   UNL     1       6.688 -16.577  -1.655  1.00  0.00     0.187 C 
HETATM   12  C   UNL     1       7.899 -15.651  -1.630  1.00  0.00     0.183 C 
HETATM   13  C   UNL     1       7.574 -14.375  -2.411  1.00  0.00     0.204 C 
BRANCH  10  14
HETATM   14  C   UNL     1       4.188 -16.165  -1.981  1.00  0.00     0.198 C 
BRANCH  14  15
HETATM   15  O   UNL     1       2.993 -15.804  -1.289  1.00  0.00    -0.398 OA
HETATM   16  H   UNL     1       3.056 -16.198  -0.398  1.00  0.00     0.209 HD
ENDBRANCH  14  15
ENDBRANCH  10  14
BRANCH  11  17
HETATM   17  O   UNL     1       7.015 -17.705  -0.828  1.00  0.00    -0.348 OA
BRANCH  17  18
HETATM   18  C   UNL     1       7.972 -18.579  -1.417  1.00  0.00     0.292 C 
HETATM   19  O   UNL     1       7.756 -18.611  -2.834  1.00  0.00    -0.351 OA
HETATM   20  C   UNL     1       8.907 -19.099  -3.552  1.00  0.00     0.150 C 
HETATM   21  C   UNL     1       9.635 -20.192  -2.746  1.00  0.00     0.068 C 
HETATM   22  C   UNL     1       8.619 -20.960  -1.886  1.00  0.00     0.154 C 
HETATM   23  C   UNL     1       7.920 -20.045  -0.824  1.00  0.00     0.205 C 
BRANCH  20  24
HETATM   24  C   UNL     1       9.793 -17.933  -4.018  1.00  0.00     0.196 C 
BRANCH  24  25
HETATM   25  O   UNL     1      10.902 -17.734  -3.146  1.00  0.00    -0.398 OA
HETATM   26  H   UNL     1      11.561 -18.430  -3.296  1.00  0.00     0.209 HD
ENDBRANCH  24  25
ENDBRANCH  20  24
BRANCH  22  27
HETATM   27  O   UNL     1       7.639 -21.510  -2.783  1.00  0.00    -0.393 OA
HETATM   28  H   UNL     1       7.359 -22.372  -2.417  1.00  0.00     0.210 HD
ENDBRANCH  22  27
BRANCH  23  29
HETATM   29  O   UNL     1       6.531 -20.518  -0.521  1.00  0.00    -0.377 OA
BRANCH  29  30
HETATM   30  C   UNL     1       6.175 -20.778   0.900  1.00  0.00     0.185 C 
BRANCH  30  31
HETATM   31  C   UNL     1       4.668 -20.369   1.312  1.00  0.00     0.039 C 
HETATM   32  C   UNL     1       4.466 -18.870   1.042  1.00  0.00     0.025 C 
BRANCH  31  33
HETATM   33  C   UNL     1       4.320 -20.739   2.853  1.00  0.00     0.036 C 
BRANCH  33  34
HETATM   34  C   UNL     1       2.999 -20.237   3.667  1.00  0.00     0.019 C 
HETATM   35  C   UNL     1       3.406 -18.822   4.159  1.00  0.00     0.023 C 
BRANCH  34  36
HETATM   36  C   UNL     1       2.748 -21.227   4.928  1.00  0.00     0.033 C 
BRANCH  36  37
HETATM   37  C   UNL     1       2.004 -20.904   6.353  1.00  0.00     0.019 C 
HETATM   38  C   UNL     1       1.138 -19.642   6.208  1.00  0.00     0.023 C 
BRANCH  37  39
HETATM   39  C   UNL     1       3.188 -20.619   7.397  1.00  0.00     0.033 C 
BRANCH  39  40
HETATM   40  C   UNL     1       4.546 -21.456   7.714  1.00  0.00     0.019 C 
HETATM   41  C   UNL     1       4.387 -21.912   9.189  1.00  0.00     0.023 C 
BRANCH  40  42
HETATM   42  C   UNL     1       4.864 -22.700   6.817  1.00  0.00     0.033 C 
BRANCH  42  43
HETATM   43  C   UNL     1       5.010 -24.194   7.298  1.00  0.00     0.014 C 
HETATM   44  C   UNL     1       5.745 -24.143   8.666  1.00  0.00     0.023 C 
HETATM   45  C   UNL     1       5.916 -25.067   6.408  1.00  0.00     0.023 C 
BRANCH  43  46
HETATM   46  C   UNL     1       3.641 -24.904   7.441  1.00  0.00     0.136 C 
HETATM   47  O   UNL     1       2.826 -24.865   6.513  1.00  0.00    -0.297 OA
BRANCH  46  48
HETATM   48  C   UNL     1       3.247 -25.570   8.757  1.00  0.00     0.109 C 
BRANCH  48  49
HETATM   49  C   UNL     1       2.890 -27.048   8.533  1.00  0.00     0.279 C 
BRANCH  49  50
HETATM   50  N   UNL     1       3.014 -27.858   9.763  1.00  0.00     0.080 N 
HETATM   51  C   UNL     1       4.359 -27.785  10.336  1.00  0.00     0.309 C 
HETATM   52  C   UNL     1       2.039 -27.411  10.764  1.00  0.00     0.309 C 
ENDBRANCH  49  50
ENDBRANCH  48  49
ENDBRANCH  46  48
ENDBRANCH  43  46
ENDBRANCH  42  43
ENDBRANCH  40  42
BRANCH  40  53
HETATM   53  C   UNL     1       5.726 -20.429   7.711  1.00  0.00     0.137 C 
HETATM   54  O   UNL     1       5.814 -19.551   6.860  1.00  0.00    -0.297 OA
BRANCH  53  55
HETATM   55  C   UNL     1       6.879 -20.658   8.667  1.00  0.00     0.109 C 
BRANCH  55  56
HETATM   56  C   UNL     1       8.199 -20.945   7.949  1.00  0.00     0.279 C 
BRANCH  56  57
HETATM   57  N   UNL     1       9.226 -19.998   8.431  1.00  0.00     0.080 N 
HETATM   58  C   UNL     1       9.718 -19.158   7.336  1.00  0.00     0.309 C 
HETATM   59  C   UNL     1       8.715 -19.158   9.510  1.00  0.00     0.309 C 
ENDBRANCH  56  57
ENDBRANCH  55  56
ENDBRANCH  53  55
ENDBRANCH  40  53
ENDBRANCH  39  40
ENDBRANCH  37  39
BRANCH  37  60
HETATM   60  C   UNL     1       1.083 -22.003   6.948  1.00  0.00     0.137 C 
HETATM   61  O   UNL     1       1.281 -22.413   8.098  1.00  0.00    -0.297 OA
BRANCH  60  62
HETATM   62  C   UNL     1      -0.080 -22.576   6.175  1.00  0.00     0.109 C 
BRANCH  62  63
HETATM   63  C   UNL     1      -0.905 -23.606   6.962  1.00  0.00     0.279 C 
BRANCH  63  64
HETATM   64  N   UNL     1      -2.329 -23.218   7.046  1.00  0.00     0.080 N 
HETATM   65  C   UNL     1      -3.032 -23.979   8.082  1.00  0.00     0.309 C 
HETATM   66  C   UNL     1      -2.443 -21.785   7.336  1.00  0.00     0.309 C 
ENDBRANCH  63  64
ENDBRANCH  62  63
ENDBRANCH  60  62
ENDBRANCH  37  60
ENDBRANCH  36  37
ENDBRANCH  34  36
BRANCH  34  67
HETATM   67  C   UNL     1       1.642 -20.132   2.908  1.00  0.00     0.137 C 
HETATM   68  O   UNL     1       1.089 -21.177   2.545  1.00  0.00    -0.297 OA
BRANCH  67  69
HETATM   69  C   UNL     1       0.989 -18.784   2.569  1.00  0.00     0.109 C 
BRANCH  69  70
HETATM   70  C   UNL     1       0.786 -18.584   1.047  1.00  0.00     0.279 C 
BRANCH  70  71
HETATM   71  N   UNL     1      -0.390 -17.835   0.560  1.00  0.00     0.080 N 
HETATM   72  C   UNL     1      -0.667 -16.636   1.334  1.00  0.00     0.309 C 
HETATM   73  C   UNL     1      -0.165 -17.438  -0.839  1.00  0.00     0.309 C 
ENDBRANCH  70  71
ENDBRANCH  69  70
ENDBRANCH  67  69
ENDBRANCH  34  67
ENDBRANCH  33  34
ENDBRANCH  31  33
BRANCH  31  74
HETATM   74  C   UNL     1       3.796 -21.304   0.437  1.00  0.00     0.139 C 
HETATM   75  O   UNL     1       3.798 -22.528   0.631  1.00  0.00    -0.297 OA
BRANCH  74  76
HETATM   76  C   UNL     1       3.038 -20.771  -0.758  1.00  0.00     0.109 C 
BRANCH  76  77
HETATM   77  C   UNL     1       2.070 -21.833  -1.248  1.00  0.00     0.279 C 
BRANCH  77  78
HETATM   78  N   UNL     1       0.674 -21.629  -0.839  1.00  0.00     0.080 N 
HETATM   79  C   UNL     1       0.053 -22.885  -0.418  1.00  0.00     0.309 C 
HETATM   80  C   UNL     1      -0.091 -21.050  -1.949  1.00  0.00     0.309 C 
ENDBRANCH  77  78
ENDBRANCH  76  77
ENDBRANCH  74  76
ENDBRANCH  31  74
ENDBRANCH  30  31
ENDBRANCH  29  30
ENDBRANCH  23  29
ENDBRANCH  17  18
ENDBRANCH  11  17
BRANCH  12  81
HETATM   81  O   UNL     1       8.286 -15.360  -0.280  1.00  0.00    -0.390 OA
HETATM   82  H   UNL     1       7.471 -15.485   0.248  1.00  0.00     0.210 HD
ENDBRANCH  12  81
BRANCH  13  83
HETATM   83  O   UNL     1       8.746 -13.474  -2.410  1.00  0.00    -0.388 OA
HETATM   84  H   UNL     1       9.056 -13.345  -3.320  1.00  0.00     0.210 HD
ENDBRANCH  13  83
ENDBRANCH   7   8
ENDBRANCH   1   7
BRANCH   2  85
HETATM   85  C   UNL     1       4.619 -11.550  -4.316  1.00  0.00     0.198 C 
BRANCH  85  86
HETATM   86  O   UNL     1       4.218 -12.840  -4.756  1.00  0.00    -0.398 OA
HETATM   87  H   UNL     1       5.010 -13.404  -4.809  1.00  0.00     0.209 HD
ENDBRANCH  85  86
ENDBRANCH   2  85
BRANCH   3  88
HETATM   88  O   UNL     1       5.910 -10.058  -0.245  1.00  0.00    -0.390 OA
HETATM   89  H   UNL     1       6.476 -10.694   0.240  1.00  0.00     0.210 HD
ENDBRANCH   3  88
BRANCH   4  90
HETATM   90  O   UNL     1       6.002  -7.534  -1.664  1.00  0.00    -0.388 OA
HETATM   91  H   UNL     1       5.424  -6.851  -2.038  1.00  0.00     0.210 HD
ENDBRANCH   4  90
BRANCH   5  92
HETATM   92  O   UNL     1       3.398  -8.223  -1.814  1.00  0.00    -0.348 OA
BRANCH  92  93
HETATM   93  C   UNL     1       2.242  -7.641  -2.486  1.00  0.00     0.187 C 
HETATM   94  C   UNL     1       1.390  -6.836  -1.490  1.00  0.00     0.180 C 
HETATM   95  O   UNL     1       1.196  -5.479  -1.888  1.00  0.00    -0.348 OA
HETATM   96  C   UNL     1       0.816  -5.238  -3.241  1.00  0.00     0.292 C 
HETATM   97  C   UNL     1       1.786  -5.835  -4.355  1.00  0.00     0.208 C 
HETATM   98  C   UNL     1       2.826  -6.705  -3.590  1.00  0.00     0.183 C 
BRANCH  94  99
HETATM   99  C   UNL     1       0.021  -7.468  -1.197  1.00  0.00     0.198 C 
BRANCH  99 100
HETATM  100  O   UNL     1      -0.208  -7.528   0.210  1.00  0.00    -0.398 OA
HETATM  101  H   UNL     1       0.310  -8.279   0.563  1.00  0.00     0.209 HD
ENDBRANCH  99 100
ENDBRANCH  94  99
BRANCH  96 102
HETATM  102  O   UNL     1       0.791  -3.814  -3.326  1.00  0.00    -0.348 OA
BRANCH 102 103
HETATM  103  C   UNL     1       0.906  -3.122  -2.092  1.00  0.00     0.187 C 
HETATM  104  C   UNL     1       2.120  -2.172  -2.129  1.00  0.00     0.176 C 
HETATM  105  O   UNL     1       1.906  -0.972  -1.348  1.00  0.00    -0.378 OA
HETATM  106  C   UNL     1       1.136  -1.192  -0.162  1.00  0.00     0.202 C 
HETATM  107  C   UNL     1      -0.312  -1.617  -0.493  1.00  0.00     0.173 C 
HETATM  108  C   UNL     1      -0.378  -2.299  -1.878  1.00  0.00     0.180 C 
BRANCH 104 109
HETATM  109  C   UNL     1       3.421  -2.839  -1.668  1.00  0.00     0.198 C 
BRANCH 109 110
HETATM  110  O   UNL     1       3.127  -3.918  -0.781  1.00  0.00    -0.398 OA
HETATM  111  H   UNL     1       3.677  -3.777   0.014  1.00  0.00     0.209 HD
ENDBRANCH 109 110
ENDBRANCH 104 109
BRANCH 107 112
HETATM  112  O   UNL     1      -1.248  -0.479  -0.421  1.00  0.00    -0.391 OA
HETATM  113  H   UNL     1      -1.827  -0.585   0.351  1.00  0.00     0.210 HD
ENDBRANCH 107 112
BRANCH 108 114
HETATM  114  O   UNL     1      -0.564  -1.310  -2.909  1.00  0.00    -0.390 OA
HETATM  115  H   UNL     1      -0.940  -1.761  -3.686  1.00  0.00     0.210 HD
ENDBRANCH 108 114
ENDBRANCH 102 103
ENDBRANCH  96 102
BRANCH  97 116
HETATM  116  O   UNL     1       2.364  -4.723  -5.188  1.00  0.00    -0.369 OA
BRANCH 116 117
HETATM  117  C   UNL     1       3.610  -4.755  -5.966  1.00  0.00     0.168 C 
BRANCH 117 118
HETATM  118  C   UNL     1       3.598  -4.892  -7.566  1.00  0.00     0.046 C 
HETATM  119  C   UNL     1       2.397  -5.794  -7.891  1.00  0.00     0.026 C 
BRANCH 118 120
HETATM  120  C   UNL     1       4.928  -5.395  -8.386  1.00  0.00     0.036 C 
BRANCH 120 121
HETATM  121  C   UNL     1       6.033  -6.473  -7.767  1.00  0.00     0.019 C 
HETATM  122  C   UNL     1       6.983  -5.515  -6.997  1.00  0.00     0.023 C 
BRANCH 121 123
HETATM  123  C   UNL     1       5.519  -7.583  -6.799  1.00  0.00     0.137 C 
HETATM  124  O   UNL     1       5.830  -7.505  -5.604  1.00  0.00    -0.297 OA
BRANCH 123 125
HETATM  125  C   UNL     1       4.669  -8.772  -7.287  1.00  0.00     0.109 C 
BRANCH 125 126
HETATM  126  C   UNL     1       3.383  -8.981  -6.455  1.00  0.00     0.279 C 
BRANCH 126 127
HETATM  127  N   UNL     1       2.211  -9.633  -7.072  1.00  0.00     0.080 N 
HETATM  128  C   UNL     1       2.310  -9.518  -8.533  1.00  0.00     0.309 C 
HETATM  129  C   UNL     1       0.945  -9.058  -6.652  1.00  0.00     0.309 C 
ENDBRANCH 126 127
ENDBRANCH 125 126
ENDBRANCH 123 125
ENDBRANCH 121 123
BRANCH 121 130
HETATM  130  C   UNL     1       6.878  -7.290  -8.915  1.00  0.00     0.033 C 
BRANCH 130 131
HETATM  131  C   UNL     1       8.165  -6.730  -9.824  1.00  0.00     0.019 C 
HETATM  132  C   UNL     1       8.255  -7.558 -11.118  1.00  0.00     0.023 C 
BRANCH 131 133
HETATM  133  C   UNL     1       8.171  -5.235 -10.256  1.00  0.00     0.137 C 
HETATM  134  O   UNL     1       7.283  -4.811 -11.006  1.00  0.00    -0.297 OA
BRANCH 133 135
HETATM  135  C   UNL     1       9.224  -4.266  -9.779  1.00  0.00     0.109 C 
BRANCH 135 136
HETATM  136  C   UNL     1       8.779  -2.793  -9.758  1.00  0.00     0.279 C 
BRANCH 136 137
HETATM  137  N   UNL     1       9.555  -1.967 -10.708  1.00  0.00     0.080 N 
HETATM  138  C   UNL     1      10.923  -2.483 -10.829  1.00  0.00     0.309 C 
HETATM  139  C   UNL     1       9.603  -0.565 -10.288  1.00  0.00     0.309 C 
ENDBRANCH 136 137
ENDBRANCH 135 136
ENDBRANCH 133 135
ENDBRANCH 131 133
BRANCH 131 140
HETATM  140  C   UNL     1       9.498  -6.976  -8.958  1.00  0.00     0.033 C 
BRANCH 140 141
HETATM  141  C   UNL     1      10.139  -8.366  -8.359  1.00  0.00     0.019 C 
HETATM  142  C   UNL     1      10.050  -9.376  -9.536  1.00  0.00     0.023 C 
BRANCH 141 143
HETATM  143  C   UNL     1      11.613  -8.345  -7.813  1.00  0.00     0.033 C 
BRANCH 143 144
HETATM  144  C   UNL     1      12.910  -7.898  -8.602  1.00  0.00     0.014 C 
HETATM  145  C   UNL     1      12.500  -6.667  -9.459  1.00  0.00     0.023 C 
HETATM  146  C   UNL     1      13.421  -8.925  -9.633  1.00  0.00     0.023 C 
BRANCH 144 147
HETATM  147  C   UNL     1      14.090  -7.533  -7.663  1.00  0.00     0.136 C 
HETATM  148  O   UNL     1      13.906  -6.767  -6.713  1.00  0.00    -0.297 OA
BRANCH 147 149
HETATM  149  C   UNL     1      15.501  -8.034  -7.960  1.00  0.00     0.109 C 
BRANCH 149 150
HETATM  150  C   UNL     1      16.526  -7.381  -7.018  1.00  0.00     0.279 C 
BRANCH 150 151
HETATM  151  N   UNL     1      17.130  -8.343  -6.070  1.00  0.00     0.080 N 
HETATM  152  C   UNL     1      18.567  -8.509  -6.294  1.00  0.00     0.309 C 
HETATM  153  C   UNL     1      16.906  -7.902  -4.688  1.00  0.00     0.309 C 
ENDBRANCH 150 151
ENDBRANCH 149 150
ENDBRANCH 147 149
ENDBRANCH 144 147
ENDBRANCH 143 144
ENDBRANCH 141 143
BRANCH 141 154
HETATM  154  C   UNL     1       9.150  -8.894  -7.270  1.00  0.00     0.137 C 
HETATM  155  O   UNL     1       8.967  -8.284  -6.212  1.00  0.00    -0.297 OA
BRANCH 154 156
HETATM  156  C   UNL     1       8.560 -10.277  -7.439  1.00  0.00     0.109 C 
BRANCH 156 157
HETATM  157  C   UNL     1       7.746 -10.742  -6.229  1.00  0.00     0.279 C 
BRANCH 157 158
HETATM  158  N   UNL     1       8.385 -11.944  -5.651  1.00  0.00     0.080 N 
HETATM  159  C   UNL     1       9.740 -12.133  -6.163  1.00  0.00     0.309 C 
HETATM  160  C   UNL     1       7.584 -13.142  -5.913  1.00  0.00     0.309 C 
ENDBRANCH 157 158
ENDBRANCH 156 157
ENDBRANCH 154 156
ENDBRANCH 141 154
ENDBRANCH 140 141
ENDBRANCH 131 140
ENDBRANCH 130 131
ENDBRANCH 121 130
ENDBRANCH 120 121
ENDBRANCH 118 120
BRANCH 118 161
HETATM  161  C   UNL     1       3.456  -3.389  -7.941  1.00  0.00     0.139 C 
HETATM  162  O   UNL     1       2.420  -2.945  -8.452  1.00  0.00    -0.297 OA
BRANCH 161 163
HETATM  163  C   UNL     1       4.636  -2.458  -7.801  1.00  0.00     0.109 C 
BRANCH 163 164
HETATM  164  C   UNL     1       4.154  -1.109  -7.318  1.00  0.00     0.279 C 
BRANCH 164 165
HETATM  165  N   UNL     1       4.144  -0.043  -8.331  1.00  0.00     0.080 N 
HETATM  166  C   UNL     1       5.314  -0.136  -9.206  1.00  0.00     0.309 C 
HETATM  167  C   UNL     1       4.155   1.263  -7.664  1.00  0.00     0.309 C 
ENDBRANCH 164 165
ENDBRANCH 163 164
ENDBRANCH 161 163
ENDBRANCH 118 161
ENDBRANCH 117 118
ENDBRANCH 116 117
ENDBRANCH  97 116
BRANCH  98 168
HETATM  168  O   UNL     1       3.808  -5.839  -2.981  1.00  0.00    -0.390 OA
HETATM  169  H   UNL     1       4.621  -6.373  -2.881  1.00  0.00     0.210 HD
ENDBRANCH  98 168
ENDBRANCH  92  93
ENDBRANCH   5  92
TORSDOF 88
ENDMDL
