MODEL 1
REMARK VINA RESULT:      -6.4      0.000      0.000
REMARK WARNING: 32 MAX_TORS EXCEEDED!!!
REMARK  60 active torsions:
REMARK  status: ('A' for Active; 'I' for Inactive)
REMARK    1  A    between atoms: C_1  and  O_30 
REMARK    2  A    between atoms: C_3  and  O_9 
REMARK    3  A    between atoms: C_4  and  O_11 
REMARK    4  A    between atoms: O_11  and  C_106 
REMARK    5  A    between atoms: O_14  and  C_18 
REMARK    6  A    between atoms: O_19  and  C_22 
REMARK    7  A    between atoms: O_19  and  C_42 
REMARK    8  A    between atoms: O_21  and  C_24 
REMARK    9  A    between atoms: O_26  and  C_29 
REMARK   10  A    between atoms: C_28  and  C_34 
REMARK   11  A    between atoms: O_30  and  C_33 
REMARK   12  A    between atoms: C_31  and  O_53 
REMARK   13  A    between atoms: O_32  and  C_35 
REMARK   14  A    between atoms: C_34  and  O_59 
REMARK   15  A    between atoms: O_37  and  C_41 
REMARK   16  A    between atoms: C_39  and  C_45 
REMARK   17  A    between atoms: O_40  and  C_45 
REMARK   18  A    between atoms: O_40  and  C_157 
REMARK   19  A    between atoms: O_43  and  C_46 
REMARK   20  A    between atoms: O_48  and  C_52 
REMARK   21  A    between atoms: C_50  and  C_57 
REMARK   22  A    between atoms: O_51  and  C_57 
REMARK   23  A    between atoms: O_51  and  C_135 
REMARK   24  A    between atoms: O_53  and  C_56 
REMARK   25  A    between atoms: O_55  and  C_58 
REMARK   26  A    between atoms: O_55  and  C_60 
REMARK   27  A    between atoms: O_59  and  C_141 
REMARK   28  A    between atoms: C_60  and  C_61 
REMARK   29  A    between atoms: C_61  and  C_62 
REMARK   30  A    between atoms: C_61  and  N_75 
REMARK   31  A    between atoms: C_62  and  C_63 
REMARK   32  A    between atoms: C_63  and  C_64 
REMARK   33  A    between atoms: C_63  and  N_89 
REMARK   34  A    between atoms: C_64  and  C_65 
REMARK   35  A    between atoms: C_65  and  C_66 
REMARK   36  A    between atoms: C_65  and  N_79 
REMARK   37  A    between atoms: C_66  and  C_67 
REMARK   38  A    between atoms: C_67  and  C_68 
REMARK   39  A    between atoms: C_67  and  N_94 
REMARK   40  A    between atoms: C_68  and  C_69 
REMARK   41  A    between atoms: C_69  and  N_84 
REMARK   42  A    between atoms: N_101  and  C_107 
REMARK   43  A    between atoms: C_106  and  C_107 
REMARK   44  A    between atoms: C_107  and  C_114 
REMARK   45  A    between atoms: N_110  and  C_116 
REMARK   46  A    between atoms: C_112  and  C_116 
REMARK   47  A    between atoms: C_112  and  C_118 
REMARK   48  A    between atoms: N_113  and  C_123 
REMARK   49  A    between atoms: C_114  and  C_118 
REMARK   50  A    between atoms: C_116  and  C_120 
REMARK   51  A    between atoms: N_117  and  C_118 
REMARK   52  A    between atoms: C_120  and  C_125 
REMARK   53  A    between atoms: C_123  and  C_124 
REMARK   54  A    between atoms: C_124  and  C_125 
REMARK   55  A    between atoms: C_125  and  N_128 
REMARK   56  A    between atoms: C_135  and  C_136 
REMARK   57  A    between atoms: C_136  and  O_138 
REMARK   58  A    between atoms: C_141  and  C_142 
REMARK   59  A    between atoms: C_142  and  O_143 
REMARK   60  A    between atoms: C_157  and  O_158 
ROOT
HETATM    1  C   UNL     1      15.143 -17.518  15.880  1.00  0.00     0.187 C 
HETATM    2  C   UNL     1      16.005 -18.504  16.767  1.00  0.00     0.180 C 
HETATM    3  C   UNL     1      14.779 -16.174  16.593  1.00  0.00     0.183 C 
HETATM    4  C   UNL     1      15.911 -15.665  17.541  1.00  0.00     0.208 C 
HETATM    5  C   UNL     1      16.125 -16.891  18.477  1.00  0.00     0.292 C 
HETATM    6  C   UNL     1      15.194 -19.675  17.413  1.00  0.00     0.203 C 
HETATM    7  O   UNL     1      15.917 -20.677  18.132  1.00  0.00    -0.370 OA
HETATM    8  O   UNL     1      16.843 -17.857  17.733  1.00  0.00    -0.348 OA
HETATM    9  O   UNL     1      16.785 -16.580  19.714  1.00  0.00    -0.348 OA
HETATM   10  O   UNL     1      16.770 -17.656  23.152  1.00  0.00    -0.348 OA
HETATM   11  C   UNL     1      16.607 -18.002  21.779  1.00  0.00     0.180 C 
HETATM   12  O   UNL     1      16.377 -20.299  22.540  1.00  0.00    -0.304 OA
HETATM   13  C   UNL     1      15.715 -15.604  21.741  1.00  0.00     0.183 C 
HETATM   14  C   UNL     1      15.988 -16.868  20.895  1.00  0.00     0.187 C 
HETATM   15  C   UNL     1      15.655 -17.090  23.831  1.00  0.00     0.292 C 
HETATM   16  C   UNL     1      15.858 -19.344  21.674  1.00  0.00     0.215 C 
HETATM   17  C   UNL     1      14.872 -16.070  22.955  1.00  0.00     0.204 C 
HETATM   18 NA   UNL     1      20.411 -20.151  18.033  1.00  0.00     0.050 Na
HETATM   19  C   UNL     1      17.316 -20.527  18.056  1.00  0.00     0.261 C 
HETATM   20  C   UNL     1      18.016 -21.836  17.864  1.00  0.00     0.310 C 
HETATM   21  O   UNL     1      19.362 -21.860  17.805  1.00  0.00    -0.185 OA
HETATM   22  O   UNL     1      17.389 -22.878  17.769  1.00  0.00    -0.261 OA
HETATM   23 NA   UNL     1      20.127 -20.893  21.019  1.00  0.00     0.051 Na
HETATM   24  C   UNL     1      18.571 -20.208  23.386  1.00  0.00     0.146 C 
HETATM   25  C   UNL     1      17.594 -20.912  22.487  1.00  0.00     0.314 C 
HETATM   26  O   UNL     1      18.127 -20.892  21.251  1.00  0.00    -0.172 OA
HETATM   27  O   UNL     1      17.506 -22.051  22.914  1.00  0.00    -0.242 OA
ENDROOT
BRANCH   1  28
HETATM   28  O   UNL     1      15.829 -17.252  14.662  1.00  0.00    -0.348 OA
BRANCH  28  29
HETATM   29  C   UNL     1      15.727 -18.313  13.697  1.00  0.00     0.292 C 
HETATM   30  O   UNL     1      16.857 -18.261  12.834  1.00  0.00    -0.348 OA
HETATM   31  C   UNL     1      16.862 -19.243  11.781  1.00  0.00     0.180 C 
HETATM   32  C   UNL     1      15.462 -19.535  11.148  1.00  0.00     0.187 C 
HETATM   33  C   UNL     1      14.526 -18.358  11.414  1.00  0.00     0.183 C 
HETATM   34  C   UNL     1      14.371 -18.187  12.938  1.00  0.00     0.204 C 
BRANCH  31  35
HETATM   35  C   UNL     1      17.573 -20.560  12.202  1.00  0.00     0.203 C 
BRANCH  35  36
HETATM   36  O   UNL     1      18.944 -20.409  12.499  1.00  0.00    -0.370 OA
BRANCH  36  37
HETATM   37  C   UNL     1      19.184 -20.704  13.847  1.00  0.00     0.262 C 
BRANCH  37  38
HETATM   38  C   UNL     1      19.627 -19.455  14.535  1.00  0.00     0.321 C 
HETATM   39  O   UNL     1      20.598 -18.838  14.124  1.00  0.00    -0.260 OA
BRANCH  38  40
HETATM   40  O   UNL     1      18.941 -18.993  15.595  1.00  0.00    -0.147 OA
HETATM   41 NA   UNL     1      18.242 -17.107  15.591  1.00  0.00     0.000 Na
ENDBRANCH  38  40
ENDBRANCH  37  38
ENDBRANCH  36  37
ENDBRANCH  35  36
ENDBRANCH  31  35
BRANCH  32  42
HETATM   42  O   UNL     1      15.570 -19.665   9.735  1.00  0.00    -0.348 OA
BRANCH  42  43
HETATM   43  C   UNL     1      15.653 -20.988   9.249  1.00  0.00     0.292 C 
HETATM   44  O   UNL     1      16.495 -20.979   8.093  1.00  0.00    -0.351 OA
HETATM   45  C   UNL     1      15.947 -21.585   6.935  1.00  0.00     0.151 C 
HETATM   46  C   UNL     1      15.393 -22.993   7.257  1.00  0.00     0.068 C 
HETATM   47  C   UNL     1      14.369 -22.972   8.424  1.00  0.00     0.154 C 
HETATM   48  C   UNL     1      14.204 -21.566   9.044  1.00  0.00     0.205 C 
BRANCH  45  49
HETATM   49  C   UNL     1      17.056 -21.701   5.867  1.00  0.00     0.200 C 
BRANCH  49  50
HETATM   50  O   UNL     1      17.129 -20.566   5.023  1.00  0.00    -0.379 OA
BRANCH  50  51
HETATM   51  C   UNL     1      17.755 -20.848   3.786  1.00  0.00     0.281 C 
BRANCH  51  52
HETATM   52  C   UNL     1      18.668 -19.714   3.412  1.00  0.00     0.313 C 
HETATM   53  O   UNL     1      18.929 -19.481   2.242  1.00  0.00    -0.260 OA
BRANCH  52  54
HETATM   54  O   UNL     1      19.210 -18.944   4.374  1.00  0.00    -0.148 OA
HETATM   55 NA   UNL     1      19.632 -17.007   4.031  1.00  0.00     0.000 Na
ENDBRANCH  52  54
ENDBRANCH  51  52
ENDBRANCH  50  51
ENDBRANCH  49  50
ENDBRANCH  45  49
BRANCH  47  56
HETATM   56  O   UNL     1      13.129 -23.515   8.046  1.00  0.00    -0.393 OA
HETATM   57  H   UNL     1      12.475 -22.768   7.988  1.00  0.00     0.210 HD
ENDBRANCH  47  56
BRANCH  48  58
HETATM   58  O   UNL     1      13.381 -20.804   8.172  1.00  0.00    -0.376 OA
BRANCH  58  59
HETATM   59  C   UNL     1      12.318 -20.107   8.805  1.00  0.00     0.194 C 
BRANCH  59  60
HETATM   60  C   UNL     1      11.256 -21.030   9.482  1.00  0.00     0.116 C 
BRANCH  60  61
HETATM   61  C   UNL     1       9.896 -20.984   8.695  1.00  0.00     0.053 C 
BRANCH  61  62
HETATM   62  C   UNL     1       8.901 -22.205   8.740  1.00  0.00     0.094 C 
BRANCH  62  63
HETATM   63  C   UNL     1       7.543 -21.852   8.008  1.00  0.00     0.051 C 
BRANCH  63  64
HETATM   64  C   UNL     1       6.187 -22.398   8.571  1.00  0.00     0.094 C 
BRANCH  64  65
HETATM   65  C   UNL     1       5.100 -21.275   8.732  1.00  0.00     0.051 C 
BRANCH  65  66
HETATM   66  C   UNL     1       4.074 -21.285   7.565  1.00  0.00     0.094 C 
BRANCH  66  67
HETATM   67  C   UNL     1       2.568 -21.414   7.972  1.00  0.00     0.051 C 
BRANCH  67  68
HETATM   68  C   UNL     1       1.653 -22.482   7.292  1.00  0.00     0.089 C 
HETATM   69  C   UNL     1       1.488 -23.685   8.237  1.00  0.00     0.033 C 
BRANCH  68  70
HETATM   70  N   UNL     1       0.333 -22.022   6.894  1.00  0.00    -0.334 N 
HETATM   71  C   UNL     1       0.075 -20.886   6.102  1.00  0.00     0.210 A 
HETATM   72  N   UNL     1      -1.177 -20.722   5.913  1.00  0.00    -0.254 NA
HETATM   73  C   UNL     1      -1.825 -21.781   6.588  1.00  0.00     0.150 A 
HETATM   74  C   UNL     1      -0.930 -22.572   7.177  1.00  0.00     0.082 A 
ENDBRANCH  68  70
ENDBRANCH  67  68
ENDBRANCH  66  67
BRANCH  66  75
HETATM   75  N   UNL     1       4.308 -20.196   6.604  1.00  0.00    -0.345 N 
HETATM   76  C   UNL     1       5.448 -19.508   6.378  1.00  0.00     0.209 A 
HETATM   77  N   UNL     1       5.298 -18.584   5.407  1.00  0.00    -0.255 NA
HETATM   78  C   UNL     1       4.016 -18.704   5.008  1.00  0.00     0.135 A 
HETATM   79  C   UNL     1       3.406 -19.697   5.740  1.00  0.00     0.111 A 
ENDBRANCH  66  75
ENDBRANCH  65  66
ENDBRANCH  64  65
BRANCH  64  80
HETATM   80  N   UNL     1       5.623 -23.441   7.689  1.00  0.00    -0.345 N 
HETATM   81  C   UNL     1       5.700 -23.548   6.347  1.00  0.00     0.209 A 
HETATM   82  N   UNL     1       5.093 -24.662   5.888  1.00  0.00    -0.255 NA
HETATM   83  C   UNL     1       4.626 -25.284   6.987  1.00  0.00     0.135 A 
HETATM   84  C   UNL     1       4.956 -24.543   8.096  1.00  0.00     0.111 A 
ENDBRANCH  64  80
ENDBRANCH  63  64
ENDBRANCH  62  63
BRANCH  62  85
HETATM   85  N   UNL     1       9.544 -23.501   8.419  1.00  0.00    -0.345 N 
HETATM   86  C   UNL     1       9.842 -23.946   7.179  1.00  0.00     0.209 A 
HETATM   87  N   UNL     1      10.345 -25.195   7.178  1.00  0.00    -0.255 NA
HETATM   88  C   UNL     1      10.337 -25.569   8.468  1.00  0.00     0.135 A 
HETATM   89  C   UNL     1       9.823 -24.545   9.229  1.00  0.00     0.111 A 
ENDBRANCH  62  85
ENDBRANCH  61  62
ENDBRANCH  60  61
BRANCH  60  90
HETATM   90  N   UNL     1      11.138 -20.812  10.944  1.00  0.00    -0.343 N 
HETATM   91  C   UNL     1      11.971 -21.190  11.941  1.00  0.00     0.111 A 
HETATM   92  C   UNL     1      11.440 -20.770  13.138  1.00  0.00     0.135 A 
HETATM   93  N   UNL     1      10.270 -20.150  12.909  1.00  0.00    -0.255 NA
HETATM   94  C   UNL     1      10.109 -20.198  11.573  1.00  0.00     0.209 A 
ENDBRANCH  60  90
ENDBRANCH  59  60
ENDBRANCH  58  59
ENDBRANCH  48  58
ENDBRANCH  42  43
ENDBRANCH  32  42
BRANCH  33  95
HETATM   95  O   UNL     1      14.989 -17.190  10.773  1.00  0.00    -0.390 OA
HETATM   96  H   UNL     1      15.441 -16.605  11.432  1.00  0.00     0.210 HD
ENDBRANCH  33  95
BRANCH  34  97
HETATM   97  O   UNL     1      13.650 -17.020  13.248  1.00  0.00    -0.388 OA
HETATM   98  H   UNL     1      13.585 -16.474  12.424  1.00  0.00     0.210 HD
ENDBRANCH  34  97
ENDBRANCH  28  29
ENDBRANCH   1  28
BRANCH   3  99
HETATM   99  O   UNL     1      14.410 -15.198  15.654  1.00  0.00    -0.390 OA
HETATM  100  H   UNL     1      15.096 -14.481  15.698  1.00  0.00     0.210 HD
ENDBRANCH   3  99
BRANCH   4 101
HETATM  101  O   UNL     1      17.044 -15.245  16.755  1.00  0.00    -0.376 OA
BRANCH 101 102
HETATM  102  C   UNL     1      17.832 -14.208  17.338  1.00  0.00     0.194 C 
BRANCH 102 103
HETATM  103  C   UNL     1      18.872 -14.742  18.411  1.00  0.00     0.116 C 
BRANCH 103 104
HETATM  104  N   UNL     1      19.900 -15.623  17.800  1.00  0.00    -0.343 N 
HETATM  105  C   UNL     1      20.770 -15.348  16.803  1.00  0.00     0.111 A 
HETATM  106  C   UNL     1      21.526 -16.472  16.558  1.00  0.00     0.135 A 
HETATM  107  N   UNL     1      21.124 -17.459  17.375  1.00  0.00    -0.255 NA
HETATM  108  C   UNL     1      20.131 -16.919  18.110  1.00  0.00     0.209 A 
ENDBRANCH 103 104
BRANCH 103 109
HETATM  109  C   UNL     1      19.442 -13.543  19.263  1.00  0.00     0.053 C 
BRANCH 109 110
HETATM  110  C   UNL     1      18.570 -12.419  19.969  1.00  0.00     0.094 C 
BRANCH 110 111
HETATM  111  C   UNL     1      17.002 -12.548  19.742  1.00  0.00     0.051 C 
BRANCH 111 112
HETATM  112  C   UNL     1      16.179 -11.280  19.267  1.00  0.00     0.094 C 
BRANCH 112 113
HETATM  113  N   UNL     1      15.136 -11.606  18.278  1.00  0.00    -0.345 N 
HETATM  114  C   UNL     1      13.904 -12.094  18.516  1.00  0.00     0.111 A 
HETATM  115  C   UNL     1      13.295 -12.326  17.300  1.00  0.00     0.135 A 
HETATM  116  N   UNL     1      14.147 -12.006  16.308  1.00  0.00    -0.255 NA
HETATM  117  C   UNL     1      15.261 -11.579  16.933  1.00  0.00     0.209 A 
ENDBRANCH 112 113
BRANCH 112 118
HETATM  118  C   UNL     1      17.044 -10.114  18.651  1.00  0.00     0.051 C 
BRANCH 118 119
HETATM  119  C   UNL     1      17.163  -8.895  19.616  1.00  0.00     0.094 C 
BRANCH 119 120
HETATM  120  C   UNL     1      16.064  -8.767  20.729  1.00  0.00     0.051 C 
BRANCH 120 121
HETATM  121  C   UNL     1      15.228  -7.450  20.887  1.00  0.00     0.089 C 
HETATM  122  C   UNL     1      13.840  -7.641  20.250  1.00  0.00     0.033 C 
BRANCH 121 123
HETATM  123  N   UNL     1      15.047  -6.975  22.248  1.00  0.00    -0.334 N 
HETATM  124  C   UNL     1      13.859  -6.700  22.950  1.00  0.00     0.082 A 
HETATM  125  C   UNL     1      14.228  -6.278  24.159  1.00  0.00     0.150 A 
HETATM  126  N   UNL     1      15.637  -6.262  24.268  1.00  0.00    -0.254 NA
HETATM  127  C   UNL     1      16.090  -6.668  23.146  1.00  0.00     0.210 A 
ENDBRANCH 121 123
ENDBRANCH 120 121
ENDBRANCH 119 120
BRANCH 119 128
HETATM  128  N   UNL     1      18.522  -8.813  20.188  1.00  0.00    -0.345 N 
HETATM  129  C   UNL     1      19.701  -9.036  19.564  1.00  0.00     0.209 A 
HETATM  130  N   UNL     1      20.756  -8.848  20.380  1.00  0.00    -0.255 NA
HETATM  131  C   UNL     1      20.217  -8.487  21.560  1.00  0.00     0.135 A 
HETATM  132  C   UNL     1      18.844  -8.460  21.446  1.00  0.00     0.111 A 
ENDBRANCH 119 128
ENDBRANCH 118 119
ENDBRANCH 112 118
ENDBRANCH 111 112
ENDBRANCH 110 111
BRANCH 110 133
HETATM  133  N   UNL     1      19.028 -12.112  21.350  1.00  0.00    -0.345 N 
HETATM  134  C   UNL     1      18.311 -11.837  22.457  1.00  0.00     0.111 A 
HETATM  135  C   UNL     1      19.173 -11.714  23.522  1.00  0.00     0.135 A 
HETATM  136  N   UNL     1      20.425 -11.957  23.104  1.00  0.00    -0.255 NA
HETATM  137  C   UNL     1      20.300 -12.215  21.785  1.00  0.00     0.209 A 
ENDBRANCH 110 133
ENDBRANCH 109 110
ENDBRANCH 103 109
ENDBRANCH 102 103
ENDBRANCH 101 102
ENDBRANCH   4 101
BRANCH  13 138
HETATM  138  O   UNL     1      16.909 -15.006  22.177  1.00  0.00    -0.390 OA
HETATM  139  H   UNL     1      17.322 -15.638  22.820  1.00  0.00     0.210 HD
ENDBRANCH  13 138
BRANCH  17 140
HETATM  140  O   UNL     1      14.345 -15.007  23.711  1.00  0.00    -0.388 OA
HETATM  141  H   UNL     1      14.846 -14.186  23.470  1.00  0.00     0.210 HD
ENDBRANCH  17 140
BRANCH  15 142
HETATM  142  O   UNL     1      16.200 -16.421  24.960  1.00  0.00    -0.348 OA
BRANCH 142 143
HETATM  143  C   UNL     1      17.416 -16.977  25.457  1.00  0.00     0.187 C 
HETATM  144  C   UNL     1      18.299 -15.890  26.198  1.00  0.00     0.177 C 
HETATM  145  O   UNL     1      19.147 -16.437  27.222  1.00  0.00    -0.378 OA
HETATM  146  C   UNL     1      19.551 -17.756  26.938  1.00  0.00     0.202 C 
HETATM  147  C   UNL     1      18.350 -18.720  27.050  1.00  0.00     0.173 C 
HETATM  148  C   UNL     1      17.053 -18.065  26.487  1.00  0.00     0.180 C 
BRANCH 144 149
HETATM  149  C   UNL     1      19.149 -15.052  25.226  1.00  0.00     0.215 C 
BRANCH 149 150
HETATM  150  O   UNL     1      19.304 -15.509  23.913  1.00  0.00    -0.303 OA
BRANCH 150 151
HETATM  151  C   UNL     1      20.218 -16.208  23.167  1.00  0.00     0.323 C 
HETATM  152  C   UNL     1      21.529 -15.515  22.899  1.00  0.00     0.147 C 
HETATM  153  O   UNL     1      20.496 -17.242  23.754  1.00  0.00    -0.241 OA
BRANCH 151 154
HETATM  154  O   UNL     1      19.703 -16.484  21.952  1.00  0.00    -0.132 OA
HETATM  155 NA   UNL     1      20.659 -17.702  20.657  1.00  0.00     0.000 Na
ENDBRANCH 151 154
ENDBRANCH 150 151
ENDBRANCH 149 150
ENDBRANCH 144 149
BRANCH 147 156
HETATM  156  O   UNL     1      18.148 -19.196  28.359  1.00  0.00    -0.391 OA
HETATM  157  H   UNL     1      18.441 -18.492  28.995  1.00  0.00     0.210 HD
ENDBRANCH 147 156
BRANCH 148 158
HETATM  158  O   UNL     1      16.246 -17.516  27.507  1.00  0.00    -0.390 OA
HETATM  159  H   UNL     1      16.282 -16.527  27.461  1.00  0.00     0.210 HD
ENDBRANCH 148 158
ENDBRANCH 142 143
ENDBRANCH  15 142
TORSDOF 60
ENDMDL
MODEL 2
REMARK VINA RESULT:      -6.4      7.936     14.830
REMARK WARNING: 32 MAX_TORS EXCEEDED!!!
REMARK  60 active torsions:
REMARK  status: ('A' for Active; 'I' for Inactive)
REMARK    1  A    between atoms: C_1  and  O_30 
REMARK    2  A    between atoms: C_3  and  O_9 
REMARK    3  A    between atoms: C_4  and  O_11 
REMARK    4  A    between atoms: O_11  and  C_106 
REMARK    5  A    between atoms: O_14  and  C_18 
REMARK    6  A    between atoms: O_19  and  C_22 
REMARK    7  A    between atoms: O_19  and  C_42 
REMARK    8  A    between atoms: O_21  and  C_24 
REMARK    9  A    between atoms: O_26  and  C_29 
REMARK   10  A    between atoms: C_28  and  C_34 
REMARK   11  A    between atoms: O_30  and  C_33 
REMARK   12  A    between atoms: C_31  and  O_53 
REMARK   13  A    between atoms: O_32  and  C_35 
REMARK   14  A    between atoms: C_34  and  O_59 
REMARK   15  A    between atoms: O_37  and  C_41 
REMARK   16  A    between atoms: C_39  and  C_45 
REMARK   17  A    between atoms: O_40  and  C_45 
REMARK   18  A    between atoms: O_40  and  C_157 
REMARK   19  A    between atoms: O_43  and  C_46 
REMARK   20  A    between atoms: O_48  and  C_52 
REMARK   21  A    between atoms: C_50  and  C_57 
REMARK   22  A    between atoms: O_51  and  C_57 
REMARK   23  A    between atoms: O_51  and  C_135 
REMARK   24  A    between atoms: O_53  and  C_56 
REMARK   25  A    between atoms: O_55  and  C_58 
REMARK   26  A    between atoms: O_55  and  C_60 
REMARK   27  A    between atoms: O_59  and  C_141 
REMARK   28  A    between atoms: C_60  and  C_61 
REMARK   29  A    between atoms: C_61  and  C_62 
REMARK   30  A    between atoms: C_61  and  N_75 
REMARK   31  A    between atoms: C_62  and  C_63 
REMARK   32  A    between atoms: C_63  and  C_64 
REMARK   33  A    between atoms: C_63  and  N_89 
REMARK   34  A    between atoms: C_64  and  C_65 
REMARK   35  A    between atoms: C_65  and  C_66 
REMARK   36  A    between atoms: C_65  and  N_79 
REMARK   37  A    between atoms: C_66  and  C_67 
REMARK   38  A    between atoms: C_67  and  C_68 
REMARK   39  A    between atoms: C_67  and  N_94 
REMARK   40  A    between atoms: C_68  and  C_69 
REMARK   41  A    between atoms: C_69  and  N_84 
REMARK   42  A    between atoms: N_101  and  C_107 
REMARK   43  A    between atoms: C_106  and  C_107 
REMARK   44  A    between atoms: C_107  and  C_114 
REMARK   45  A    between atoms: N_110  and  C_116 
REMARK   46  A    between atoms: C_112  and  C_116 
REMARK   47  A    between atoms: C_112  and  C_118 
REMARK   48  A    between atoms: N_113  and  C_123 
REMARK   49  A    between atoms: C_114  and  C_118 
REMARK   50  A    between atoms: C_116  and  C_120 
REMARK   51  A    between atoms: N_117  and  C_118 
REMARK   52  A    between atoms: C_120  and  C_125 
REMARK   53  A    between atoms: C_123  and  C_124 
REMARK   54  A    between atoms: C_124  and  C_125 
REMARK   55  A    between atoms: C_125  and  N_128 
REMARK   56  A    between atoms: C_135  and  C_136 
REMARK   57  A    between atoms: C_136  and  O_138 
REMARK   58  A    between atoms: C_141  and  C_142 
REMARK   59  A    between atoms: C_142  and  O_143 
REMARK   60  A    between atoms: C_157  and  O_158 
ROOT
HETATM    1  C   UNL     1      20.028  -8.450  25.217  1.00  0.00     0.187 C 
HETATM    2  C   UNL     1      20.659  -8.156  23.796  1.00  0.00     0.180 C 
HETATM    3  C   UNL     1      19.426  -7.189  25.919  1.00  0.00     0.183 C 
HETATM    4  C   UNL     1      18.776  -6.187  24.911  1.00  0.00     0.208 C 
HETATM    5  C   UNL     1      19.949  -5.916  23.923  1.00  0.00     0.292 C 
HETATM    6  C   UNL     1      22.220  -8.054  23.787  1.00  0.00     0.203 C 
HETATM    7  O   UNL     1      22.876  -7.909  22.525  1.00  0.00    -0.370 OA
HETATM    8  O   UNL     1      20.062  -7.058  23.096  1.00  0.00    -0.348 OA
HETATM    9  O   UNL     1      19.801  -4.715  23.149  1.00  0.00    -0.348 OA
HETATM   10  O   UNL     1      21.861  -2.132  21.714  1.00  0.00    -0.348 OA
HETATM   11  C   UNL     1      21.729  -3.501  22.088  1.00  0.00     0.180 C 
HETATM   12  O   UNL     1      23.903  -3.838  21.054  1.00  0.00    -0.304 OA
HETATM   13  C   UNL     1      20.317  -2.403  23.917  1.00  0.00     0.183 C 
HETATM   14  C   UNL     1      20.857  -3.742  23.366  1.00  0.00     0.187 C 
HETATM   15  C   UNL     1      22.242  -1.202  22.722  1.00  0.00     0.292 C 
HETATM   16  C   UNL     1      23.125  -4.149  22.163  1.00  0.00     0.215 C 
HETATM   17  C   UNL     1      21.547  -1.476  24.086  1.00  0.00     0.204 C 
HETATM   18 NA   UNL     1      20.092  -8.045  18.960  1.00  0.00     0.050 Na
HETATM   19  C   UNL     1      22.004  -7.998  21.422  1.00  0.00     0.261 C 
HETATM   20  C   UNL     1      22.588  -8.800  20.302  1.00  0.00     0.310 C 
HETATM   21  O   UNL     1      21.886  -8.948  19.162  1.00  0.00    -0.185 OA
HETATM   22  O   UNL     1      23.691  -9.312  20.403  1.00  0.00    -0.261 OA
HETATM   23 NA   UNL     1      21.873  -5.698  18.029  1.00  0.00     0.051 Na
HETATM   24  C   UNL     1      22.988  -3.182  18.987  1.00  0.00     0.146 C 
HETATM   25  C   UNL     1      23.726  -4.238  19.762  1.00  0.00     0.314 C 
HETATM   26  O   UNL     1      22.996  -5.364  19.667  1.00  0.00    -0.172 OA
HETATM   27  O   UNL     1      24.808  -4.362  19.213  1.00  0.00    -0.242 OA
ENDROOT
BRANCH   1  28
HETATM   28  O   UNL     1      19.033  -9.461  25.095  1.00  0.00    -0.348 OA
BRANCH  28  29
HETATM   29  C   UNL     1      19.100 -10.192  23.860  1.00  0.00     0.292 C 
HETATM   30  O   UNL     1      17.818 -10.171  23.242  1.00  0.00    -0.348 OA
HETATM   31  C   UNL     1      17.725 -10.911  22.011  1.00  0.00     0.180 C 
HETATM   32  C   UNL     1      18.534 -12.250  21.987  1.00  0.00     0.187 C 
HETATM   33  C   UNL     1      18.793 -12.716  23.419  1.00  0.00     0.183 C 
HETATM   34  C   UNL     1      19.616 -11.636  24.146  1.00  0.00     0.204 C 
BRANCH  31  35
HETATM   35  C   UNL     1      18.050 -10.038  20.767  1.00  0.00     0.203 C 
BRANCH  35  36
HETATM   36  O   UNL     1      16.923  -9.430  20.176  1.00  0.00    -0.370 OA
BRANCH  36  37
HETATM   37  C   UNL     1      17.039  -9.441  18.781  1.00  0.00     0.262 C 
BRANCH  37  38
HETATM   38  C   UNL     1      15.753  -9.930  18.200  1.00  0.00     0.321 C 
HETATM   39  O   UNL     1      14.918 -10.462  18.915  1.00  0.00    -0.260 OA
BRANCH  38  40
HETATM   40  O   UNL     1      15.500  -9.760  16.890  1.00  0.00    -0.147 OA
HETATM   41 NA   UNL     1      15.059 -11.350  15.739  1.00  0.00     0.000 Na
ENDBRANCH  38  40
ENDBRANCH  37  38
ENDBRANCH  36  37
ENDBRANCH  35  36
ENDBRANCH  31  35
BRANCH  32  42
HETATM   42  O   UNL     1      17.783 -13.276  21.349  1.00  0.00    -0.348 OA
BRANCH  42  43
HETATM   43  C   UNL     1      17.237 -12.940  20.091  1.00  0.00     0.292 C 
HETATM   44  O   UNL     1      15.941 -13.536  20.001  1.00  0.00    -0.351 OA
HETATM   45  C   UNL     1      15.709 -14.319  18.842  1.00  0.00     0.151 C 
HETATM   46  C   UNL     1      16.097 -13.543  17.562  1.00  0.00     0.068 C 
HETATM   47  C   UNL     1      17.559 -13.020  17.610  1.00  0.00     0.154 C 
HETATM   48  C   UNL     1      18.255 -13.325  18.954  1.00  0.00     0.205 C 
BRANCH  45  49
HETATM   49  C   UNL     1      14.210 -14.686  18.787  1.00  0.00     0.200 C 
BRANCH  49  50
HETATM   50  O   UNL     1      13.703 -14.734  17.465  1.00  0.00    -0.379 OA
BRANCH  50  51
HETATM   51  C   UNL     1      12.489 -14.022  17.323  1.00  0.00     0.281 C 
BRANCH  51  52
HETATM   52  C   UNL     1      12.705 -12.827  16.438  1.00  0.00     0.313 C 
HETATM   53  O   UNL     1      12.922 -12.965  15.243  1.00  0.00    -0.260 OA
BRANCH  52  54
HETATM   54  O   UNL     1      12.664 -11.588  16.962  1.00  0.00    -0.148 OA
HETATM   55 NA   UNL     1      13.185  -9.985  15.863  1.00  0.00     0.000 Na
ENDBRANCH  52  54
ENDBRANCH  51  52
ENDBRANCH  50  51
ENDBRANCH  49  50
ENDBRANCH  45  49
BRANCH  47  56
HETATM   56  O   UNL     1      18.318 -13.483  16.520  1.00  0.00    -0.393 OA
HETATM   57  H   UNL     1      17.947 -14.363  16.244  1.00  0.00     0.210 HD
ENDBRANCH  47  56
BRANCH  48  58
HETATM   58  O   UNL     1      18.637 -14.694  18.942  1.00  0.00    -0.376 OA
BRANCH  58  59
HETATM   59  C   UNL     1      19.977 -14.948  19.337  1.00  0.00     0.194 C 
BRANCH  59  60
HETATM   60  C   UNL     1      20.743 -15.946  18.412  1.00  0.00     0.116 C 
BRANCH  60  61
HETATM   61  C   UNL     1      20.774 -17.383  19.047  1.00  0.00     0.053 C 
BRANCH  61  62
HETATM   62  C   UNL     1      19.703 -18.464  18.639  1.00  0.00     0.094 C 
BRANCH  62  63
HETATM   63  C   UNL     1      18.680 -17.875  17.585  1.00  0.00     0.051 C 
BRANCH  63  64
HETATM   64  C   UNL     1      17.187 -17.636  17.994  1.00  0.00     0.094 C 
BRANCH  64  65
HETATM   65  C   UNL     1      16.172 -18.372  17.047  1.00  0.00     0.051 C 
BRANCH  65  66
HETATM   66  C   UNL     1      16.590 -18.268  15.554  1.00  0.00     0.094 C 
BRANCH  66  67
HETATM   67  C   UNL     1      16.018 -19.371  14.600  1.00  0.00     0.051 C 
BRANCH  67  68
HETATM   68  C   UNL     1      16.914 -19.991  13.482  1.00  0.00     0.089 C 
HETATM   69  C   UNL     1      16.795 -19.141  12.204  1.00  0.00     0.033 C 
BRANCH  68  70
HETATM   70  N   UNL     1      18.323 -20.138  13.809  1.00  0.00    -0.334 N 
HETATM   71  C   UNL     1      19.360 -19.325  13.311  1.00  0.00     0.210 A 
HETATM   72  N   UNL     1      20.497 -19.686  13.765  1.00  0.00    -0.254 NA
HETATM   73  C   UNL     1      20.255 -20.786  14.619  1.00  0.00     0.150 A 
HETATM   74  C   UNL     1      18.954 -21.065  14.658  1.00  0.00     0.082 A 
ENDBRANCH  68  70
ENDBRANCH  67  68
ENDBRANCH  66  67
BRANCH  66  75
HETATM   75  N   UNL     1      16.413 -16.911  15.016  1.00  0.00    -0.345 N 
HETATM   76  C   UNL     1      17.364 -16.015  14.671  1.00  0.00     0.209 A 
HETATM   77  N   UNL     1      16.833 -14.870  14.197  1.00  0.00    -0.255 NA
HETATM   78  C   UNL     1      15.500 -15.060  14.244  1.00  0.00     0.135 A 
HETATM   79  C   UNL     1      15.238 -16.316  14.743  1.00  0.00     0.111 A 
ENDBRANCH  66  75
ENDBRANCH  65  66
ENDBRANCH  64  65
BRANCH  64  80
HETATM   80  N   UNL     1      16.929 -18.102  19.373  1.00  0.00    -0.345 N 
HETATM   81  C   UNL     1      16.962 -17.400  20.525  1.00  0.00     0.209 A 
HETATM   82  N   UNL     1      16.631 -18.155  21.593  1.00  0.00    -0.255 NA
HETATM   83  C   UNL     1      16.369 -19.376  21.089  1.00  0.00     0.135 A 
HETATM   84  C   UNL     1      16.541 -19.346  19.726  1.00  0.00     0.111 A 
ENDBRANCH  64  80
ENDBRANCH  63  64
ENDBRANCH  62  63
BRANCH  62  85
HETATM   85  N   UNL     1      20.288 -19.798  18.364  1.00  0.00    -0.345 N 
HETATM   86  C   UNL     1      19.607 -20.964  18.326  1.00  0.00     0.209 A 
HETATM   87  N   UNL     1      20.405 -22.032  18.139  1.00  0.00    -0.255 NA
HETATM   88  C   UNL     1      21.648 -21.524  18.088  1.00  0.00     0.135 A 
HETATM   89  C   UNL     1      21.584 -20.160  18.252  1.00  0.00     0.111 A 
ENDBRANCH  62  85
ENDBRANCH  61  62
ENDBRANCH  60  61
BRANCH  60  90
HETATM   90  N   UNL     1      22.061 -15.434  17.964  1.00  0.00    -0.343 N 
HETATM   91  C   UNL     1      22.979 -14.709  18.644  1.00  0.00     0.111 A 
HETATM   92  C   UNL     1      24.045 -14.460  17.812  1.00  0.00     0.135 A 
HETATM   93  N   UNL     1      23.801 -15.004  16.607  1.00  0.00    -0.255 NA
HETATM   94  C   UNL     1      22.589 -15.579  16.727  1.00  0.00     0.209 A 
ENDBRANCH  60  90
ENDBRANCH  59  60
ENDBRANCH  58  59
ENDBRANCH  48  58
ENDBRANCH  42  43
ENDBRANCH  32  42
BRANCH  33  95
HETATM   95  O   UNL     1      17.584 -13.023  24.076  1.00  0.00    -0.390 OA
HETATM   96  H   UNL     1      16.931 -13.381  23.422  1.00  0.00     0.210 HD
ENDBRANCH  33  95
BRANCH  34  97
HETATM   97  O   UNL     1      19.749 -11.933  25.514  1.00  0.00    -0.388 OA
HETATM   98  H   UNL     1      19.145 -11.329  26.016  1.00  0.00     0.210 HD
ENDBRANCH  34  97
ENDBRANCH  28  29
ENDBRANCH   1  28
BRANCH   3  99
HETATM   99  O   UNL     1      18.527  -7.564  26.930  1.00  0.00    -0.390 OA
HETATM  100  H   UNL     1      17.807  -6.881  26.945  1.00  0.00     0.210 HD
ENDBRANCH   3  99
BRANCH   4 101
HETATM  101  O   UNL     1      17.582  -6.772  24.355  1.00  0.00    -0.376 OA
BRANCH 101 102
HETATM  102  C   UNL     1      16.544  -5.843  24.045  1.00  0.00     0.194 C 
BRANCH 102 103
HETATM  103  C   UNL     1      15.184  -6.543  23.625  1.00  0.00     0.116 C 
BRANCH 103 104
HETATM  104  N   UNL     1      15.033  -6.628  22.150  1.00  0.00    -0.343 N 
HETATM  105  C   UNL     1      14.141  -7.343  21.427  1.00  0.00     0.111 A 
HETATM  106  C   UNL     1      14.385  -7.124  20.090  1.00  0.00     0.135 A 
HETATM  107  N   UNL     1      15.436  -6.298  19.964  1.00  0.00    -0.255 NA
HETATM  108  C   UNL     1      15.815  -6.021  21.228  1.00  0.00     0.209 A 
ENDBRANCH 103 104
BRANCH 103 109
HETATM  109  C   UNL     1      15.013  -7.911  24.393  1.00  0.00     0.053 C 
BRANCH 109 110
HETATM  110  C   UNL     1      14.653  -8.063  25.932  1.00  0.00     0.094 C 
BRANCH 110 111
HETATM  111  C   UNL     1      15.546  -9.108  26.729  1.00  0.00     0.051 C 
BRANCH 111 112
HETATM  112  C   UNL     1      15.247 -10.657  26.580  1.00  0.00     0.094 C 
BRANCH 112 113
HETATM  113  N   UNL     1      14.218 -11.139  27.520  1.00  0.00    -0.345 N 
HETATM  114  C   UNL     1      13.456 -12.244  27.407  1.00  0.00     0.111 A 
HETATM  115  C   UNL     1      12.576 -12.264  28.468  1.00  0.00     0.135 A 
HETATM  116  N   UNL     1      12.770 -11.171  29.229  1.00  0.00    -0.255 NA
HETATM  117  C   UNL     1      13.770 -10.502  28.623  1.00  0.00     0.209 A 
ENDBRANCH 112 113
BRANCH 112 118
HETATM  118  C   UNL     1      16.499 -11.600  26.751  1.00  0.00     0.051 C 
BRANCH 118 119
HETATM  119  C   UNL     1      16.823 -11.885  28.249  1.00  0.00     0.094 C 
BRANCH 119 120
HETATM  120  C   UNL     1      17.252 -13.350  28.612  1.00  0.00     0.051 C 
BRANCH 120 121
HETATM  121  C   UNL     1      16.556 -14.125  29.784  1.00  0.00     0.089 C 
HETATM  122  C   UNL     1      15.574 -13.188  30.510  1.00  0.00     0.033 C 
BRANCH 121 123
HETATM  123  N   UNL     1      15.843 -15.335  29.407  1.00  0.00    -0.334 N 
HETATM  124  C   UNL     1      16.342 -16.625  29.151  1.00  0.00     0.082 A 
HETATM  125  C   UNL     1      15.289 -17.376  28.831  1.00  0.00     0.150 A 
HETATM  126  N   UNL     1      14.104 -16.607  28.865  1.00  0.00    -0.254 NA
HETATM  127  C   UNL     1      14.452 -15.425  29.199  1.00  0.00     0.210 A 
ENDBRANCH 121 123
ENDBRANCH 120 121
ENDBRANCH 119 120
BRANCH 119 128
HETATM  128  N   UNL     1      17.787 -10.896  28.772  1.00  0.00    -0.345 N 
HETATM  129  C   UNL     1      17.526  -9.792  29.509  1.00  0.00     0.209 A 
HETATM  130  N   UNL     1      18.647  -9.122  29.841  1.00  0.00    -0.255 NA
HETATM  131  C   UNL     1      19.649  -9.838  29.295  1.00  0.00     0.135 A 
HETATM  132  C   UNL     1      19.126 -10.932  28.640  1.00  0.00     0.111 A 
ENDBRANCH 119 128
ENDBRANCH 118 119
ENDBRANCH 112 118
ENDBRANCH 111 112
ENDBRANCH 110 111
BRANCH 110 133
HETATM  133  N   UNL     1      14.388  -6.759  26.596  1.00  0.00    -0.345 N 
HETATM  134  C   UNL     1      13.224  -6.107  26.787  1.00  0.00     0.111 A 
HETATM  135  C   UNL     1      13.468  -4.979  27.537  1.00  0.00     0.135 A 
HETATM  136  N   UNL     1      14.769  -4.940  27.861  1.00  0.00    -0.255 NA
HETATM  137  C   UNL     1      15.296  -6.045  27.292  1.00  0.00     0.209 A 
ENDBRANCH 110 133
ENDBRANCH 109 110
ENDBRANCH 103 109
ENDBRANCH 102 103
ENDBRANCH 101 102
ENDBRANCH   4 101
BRANCH  13 138
HETATM  138  O   UNL     1      19.384  -1.822  23.042  1.00  0.00    -0.390 OA
HETATM  139  H   UNL     1      19.566  -0.846  23.046  1.00  0.00     0.210 HD
ENDBRANCH  13 138
BRANCH  17 140
HETATM  140  O   UNL     1      21.263  -0.292  24.791  1.00  0.00    -0.388 OA
HETATM  141  H   UNL     1      20.289  -0.122  24.718  1.00  0.00     0.210 HD
ENDBRANCH  17 140
BRANCH  15 142
HETATM  142  O   UNL     1      21.838   0.070  22.234  1.00  0.00    -0.348 OA
BRANCH 142 143
HETATM  143  C   UNL     1      22.564   0.534  21.097  1.00  0.00     0.187 C 
HETATM  144  C   UNL     1      22.110   1.989  20.663  1.00  0.00     0.177 C 
HETATM  145  O   UNL     1      23.143   2.745  20.010  1.00  0.00    -0.378 OA
HETATM  146  C   UNL     1      24.037   1.926  19.294  1.00  0.00     0.202 C 
HETATM  147  C   UNL     1      24.899   1.092  20.267  1.00  0.00     0.173 C 
HETATM  148  C   UNL     1      24.055   0.607  21.484  1.00  0.00     0.180 C 
BRANCH 144 149
HETATM  149  C   UNL     1      20.849   1.979  19.780  1.00  0.00     0.215 C 
BRANCH 149 150
HETATM  150  O   UNL     1      19.889   2.977  19.980  1.00  0.00    -0.303 OA
BRANCH 150 151
HETATM  151  C   UNL     1      18.899   3.288  20.878  1.00  0.00     0.323 C 
HETATM  152  C   UNL     1      19.308   4.140  22.052  1.00  0.00     0.147 C 
HETATM  153  O   UNL     1      18.023   3.909  20.298  1.00  0.00    -0.241 OA
BRANCH 151 154
HETATM  154  O   UNL     1      18.395   2.158  21.414  1.00  0.00    -0.132 OA
HETATM  155 NA   UNL     1      19.590   0.617  21.933  1.00  0.00     0.000 Na
ENDBRANCH 151 154
ENDBRANCH 150 151
ENDBRANCH 149 150
ENDBRANCH 144 149
BRANCH 147 156
HETATM  156  O   UNL     1      26.056   1.770  20.695  1.00  0.00    -0.391 OA
HETATM  157  H   UNL     1      26.042   1.814  21.687  1.00  0.00     0.210 HD
ENDBRANCH 147 156
BRANCH 148 158
HETATM  158  O   UNL     1      24.221   1.435  22.615  1.00  0.00    -0.390 OA
HETATM  159  H   UNL     1      25.186   1.570  22.788  1.00  0.00     0.210 HD
ENDBRANCH 148 158
ENDBRANCH 142 143
ENDBRANCH  15 142
TORSDOF 60
ENDMDL
MODEL 3
REMARK VINA RESULT:      -6.3      5.085     10.626
REMARK WARNING: 32 MAX_TORS EXCEEDED!!!
REMARK  60 active torsions:
REMARK  status: ('A' for Active; 'I' for Inactive)
REMARK    1  A    between atoms: C_1  and  O_30 
REMARK    2  A    between atoms: C_3  and  O_9 
REMARK    3  A    between atoms: C_4  and  O_11 
REMARK    4  A    between atoms: O_11  and  C_106 
REMARK    5  A    between atoms: O_14  and  C_18 
REMARK    6  A    between atoms: O_19  and  C_22 
REMARK    7  A    between atoms: O_19  and  C_42 
REMARK    8  A    between atoms: O_21  and  C_24 
REMARK    9  A    between atoms: O_26  and  C_29 
REMARK   10  A    between atoms: C_28  and  C_34 
REMARK   11  A    between atoms: O_30  and  C_33 
REMARK   12  A    between atoms: C_31  and  O_53 
REMARK   13  A    between atoms: O_32  and  C_35 
REMARK   14  A    between atoms: C_34  and  O_59 
REMARK   15  A    between atoms: O_37  and  C_41 
REMARK   16  A    between atoms: C_39  and  C_45 
REMARK   17  A    between atoms: O_40  and  C_45 
REMARK   18  A    between atoms: O_40  and  C_157 
REMARK   19  A    between atoms: O_43  and  C_46 
REMARK   20  A    between atoms: O_48  and  C_52 
REMARK   21  A    between atoms: C_50  and  C_57 
REMARK   22  A    between atoms: O_51  and  C_57 
REMARK   23  A    between atoms: O_51  and  C_135 
REMARK   24  A    between atoms: O_53  and  C_56 
REMARK   25  A    between atoms: O_55  and  C_58 
REMARK   26  A    between atoms: O_55  and  C_60 
REMARK   27  A    between atoms: O_59  and  C_141 
REMARK   28  A    between atoms: C_60  and  C_61 
REMARK   29  A    between atoms: C_61  and  C_62 
REMARK   30  A    between atoms: C_61  and  N_75 
REMARK   31  A    between atoms: C_62  and  C_63 
REMARK   32  A    between atoms: C_63  and  C_64 
REMARK   33  A    between atoms: C_63  and  N_89 
REMARK   34  A    between atoms: C_64  and  C_65 
REMARK   35  A    between atoms: C_65  and  C_66 
REMARK   36  A    between atoms: C_65  and  N_79 
REMARK   37  A    between atoms: C_66  and  C_67 
REMARK   38  A    between atoms: C_67  and  C_68 
REMARK   39  A    between atoms: C_67  and  N_94 
REMARK   40  A    between atoms: C_68  and  C_69 
REMARK   41  A    between atoms: C_69  and  N_84 
REMARK   42  A    between atoms: N_101  and  C_107 
REMARK   43  A    between atoms: C_106  and  C_107 
REMARK   44  A    between atoms: C_107  and  C_114 
REMARK   45  A    between atoms: N_110  and  C_116 
REMARK   46  A    between atoms: C_112  and  C_116 
REMARK   47  A    between atoms: C_112  and  C_118 
REMARK   48  A    between atoms: N_113  and  C_123 
REMARK   49  A    between atoms: C_114  and  C_118 
REMARK   50  A    between atoms: C_116  and  C_120 
REMARK   51  A    between atoms: N_117  and  C_118 
REMARK   52  A    between atoms: C_120  and  C_125 
REMARK   53  A    between atoms: C_123  and  C_124 
REMARK   54  A    between atoms: C_124  and  C_125 
REMARK   55  A    between atoms: C_125  and  N_128 
REMARK   56  A    between atoms: C_135  and  C_136 
REMARK   57  A    between atoms: C_136  and  O_138 
REMARK   58  A    between atoms: C_141  and  C_142 
REMARK   59  A    between atoms: C_142  and  O_143 
REMARK   60  A    between atoms: C_157  and  O_158 
ROOT
HETATM    1  C   UNL     1      17.668 -15.145  18.274  1.00  0.00     0.187 C 
HETATM    2  C   UNL     1      16.896 -13.767  18.366  1.00  0.00     0.180 C 
HETATM    3  C   UNL     1      18.601 -15.434  19.496  1.00  0.00     0.183 C 
HETATM    4  C   UNL     1      18.021 -14.894  20.842  1.00  0.00     0.208 C 
HETATM    5  C   UNL     1      17.784 -13.391  20.513  1.00  0.00     0.292 C 
HETATM    6  C   UNL     1      17.510 -12.618  17.501  1.00  0.00     0.203 C 
HETATM    7  O   UNL     1      16.804 -11.376  17.435  1.00  0.00    -0.370 OA
HETATM    8  O   UNL     1      16.626 -13.325  19.702  1.00  0.00    -0.348 OA
HETATM    9  O   UNL     1      17.668 -12.546  21.669  1.00  0.00    -0.348 OA
HETATM   10  O   UNL     1      18.480  -9.183  22.673  1.00  0.00    -0.348 OA
HETATM   11  C   UNL     1      18.093 -10.069  21.626  1.00  0.00     0.180 C 
HETATM   12  O   UNL     1      17.902  -8.091  20.226  1.00  0.00    -0.304 OA
HETATM   13  C   UNL     1      19.557 -11.641  23.016  1.00  0.00     0.183 C 
HETATM   14  C   UNL     1      18.687 -11.513  21.746  1.00  0.00     0.187 C 
HETATM   15  C   UNL     1      19.865  -9.094  22.988  1.00  0.00     0.292 C 
HETATM   16  C   UNL     1      18.362  -9.402  20.264  1.00  0.00     0.215 C 
HETATM   17  C   UNL     1      20.578 -10.476  22.960  1.00  0.00     0.204 C 
HETATM   18 NA   UNL     1      12.851 -11.369  19.637  1.00  0.00     0.050 Na
HETATM   19  C   UNL     1      15.555 -11.401  18.086  1.00  0.00     0.261 C 
HETATM   20  C   UNL     1      14.495 -10.692  17.304  1.00  0.00     0.310 C 
HETATM   21  O   UNL     1      13.251 -10.602  17.813  1.00  0.00    -0.185 OA
HETATM   22  O   UNL     1      14.742 -10.189  16.220  1.00  0.00    -0.261 OA
HETATM   23 NA   UNL     1      13.855  -8.590  20.540  1.00  0.00     0.051 Na
HETATM   24  C   UNL     1      16.211  -7.283  21.649  1.00  0.00     0.146 C 
HETATM   25  C   UNL     1      16.612  -7.651  20.248  1.00  0.00     0.314 C 
HETATM   26  O   UNL     1      15.740  -8.588  19.833  1.00  0.00    -0.172 OA
HETATM   27  O   UNL     1      16.510  -6.628  19.590  1.00  0.00    -0.242 OA
ENDROOT
BRANCH   1  28
HETATM   28  O   UNL     1      16.733 -16.205  18.114  1.00  0.00    -0.348 OA
BRANCH  28  29
HETATM   29  C   UNL     1      16.666 -16.720  16.774  1.00  0.00     0.292 C 
HETATM   30  O   UNL     1      15.332 -16.584  16.294  1.00  0.00    -0.348 OA
HETATM   31  C   UNL     1      15.106 -17.107  14.973  1.00  0.00     0.180 C 
HETATM   32  C   UNL     1      15.877 -18.430  14.649  1.00  0.00     0.187 C 
HETATM   33  C   UNL     1      16.258 -19.131  15.951  1.00  0.00     0.183 C 
HETATM   34  C   UNL     1      17.171 -18.195  16.765  1.00  0.00     0.204 C 
BRANCH  31  35
HETATM   35  C   UNL     1      15.334 -16.041  13.865  1.00  0.00     0.203 C 
BRANCH  35  36
HETATM   36  O   UNL     1      14.757 -14.784  14.144  1.00  0.00    -0.370 OA
BRANCH  36  37
HETATM   37  C   UNL     1      13.408 -14.933  14.487  1.00  0.00     0.262 C 
BRANCH  37  38
HETATM   38  C   UNL     1      13.025 -13.821  15.407  1.00  0.00     0.321 C 
HETATM   39  O   UNL     1      12.740 -14.056  16.571  1.00  0.00    -0.260 OA
BRANCH  38  40
HETATM   40  O   UNL     1      13.020 -12.552  14.961  1.00  0.00    -0.147 OA
HETATM   41 NA   UNL     1      14.740 -11.686  14.380  1.00  0.00     0.000 Na
ENDBRANCH  38  40
ENDBRANCH  37  38
ENDBRANCH  36  37
ENDBRANCH  35  36
ENDBRANCH  31  35
BRANCH  32  42
HETATM   42  O   UNL     1      15.044 -19.328  13.925  1.00  0.00    -0.348 OA
BRANCH  42  43
HETATM   43  C   UNL     1      14.674 -18.906  12.629  1.00  0.00     0.292 C 
HETATM   44  O   UNL     1      13.349 -19.381  12.375  1.00  0.00    -0.351 OA
HETATM   45  C   UNL     1      13.182 -20.105  11.168  1.00  0.00     0.151 C 
HETATM   46  C   UNL     1      13.776 -19.328   9.970  1.00  0.00     0.068 C 
HETATM   47  C   UNL     1      15.262 -18.939  10.197  1.00  0.00     0.154 C 
HETATM   48  C   UNL     1      15.775 -19.346  11.595  1.00  0.00     0.205 C 
BRANCH  45  49
HETATM   49  C   UNL     1      11.673 -20.335  10.935  1.00  0.00     0.200 C 
BRANCH  49  50
HETATM   50  O   UNL     1      11.267 -20.034   9.612  1.00  0.00    -0.379 OA
BRANCH  50  51
HETATM   51  C   UNL     1       9.864 -20.100   9.446  1.00  0.00     0.281 C 
BRANCH  51  52
HETATM   52  C   UNL     1       9.410 -18.990   8.540  1.00  0.00     0.313 C 
HETATM   53  O   UNL     1       8.333 -18.441   8.713  1.00  0.00    -0.260 OA
BRANCH  52  54
HETATM   54  O   UNL     1      10.195 -18.593   7.521  1.00  0.00    -0.148 OA
HETATM   55 NA   UNL     1      11.961 -19.492   7.168  1.00  0.00     0.000 Na
ENDBRANCH  52  54
ENDBRANCH  51  52
ENDBRANCH  50  51
ENDBRANCH  49  50
ENDBRANCH  45  49
BRANCH  47  56
HETATM   56  O   UNL     1      16.096 -19.434   9.178  1.00  0.00    -0.393 OA
HETATM   57  H   UNL     1      15.735 -20.315   8.892  1.00  0.00     0.210 HD
ENDBRANCH  47  56
BRANCH  48  58
HETATM   58  O   UNL     1      16.038 -20.743  11.570  1.00  0.00    -0.376 OA
BRANCH  58  59
HETATM   59  C   UNL     1      17.413 -21.096  11.568  1.00  0.00     0.194 C 
BRANCH  59  60
HETATM   60  C   UNL     1      17.974 -21.508  12.966  1.00  0.00     0.116 C 
BRANCH  60  61
HETATM   61  C   UNL     1      16.819 -22.028  13.897  1.00  0.00     0.053 C 
BRANCH  61  62
HETATM   62  C   UNL     1      16.373 -23.539  13.856  1.00  0.00     0.094 C 
BRANCH  62  63
HETATM   63  C   UNL     1      16.461 -24.192  15.294  1.00  0.00     0.051 C 
BRANCH  63  64
HETATM   64  C   UNL     1      15.507 -23.703  16.435  1.00  0.00     0.094 C 
BRANCH  64  65
HETATM   65  C   UNL     1      14.747 -24.884  17.140  1.00  0.00     0.051 C 
BRANCH  65  66
HETATM   66  C   UNL     1      13.253 -24.952  16.715  1.00  0.00     0.094 C 
BRANCH  66  67
HETATM   67  C   UNL     1      12.765 -26.318  16.127  1.00  0.00     0.051 C 
BRANCH  67  68
HETATM   68  C   UNL     1      11.895 -26.355  14.831  1.00  0.00     0.089 C 
HETATM   69  C   UNL     1      12.710 -26.985  13.688  1.00  0.00     0.033 C 
BRANCH  68  70
HETATM   70  N   UNL     1      10.629 -27.061  14.939  1.00  0.00    -0.334 N 
HETATM   71  C   UNL     1      10.478 -28.461  14.939  1.00  0.00     0.210 A 
HETATM   72  N   UNL     1       9.252 -28.800  15.044  1.00  0.00    -0.254 NA
HETATM   73  C   UNL     1       8.512 -27.599  15.129  1.00  0.00     0.150 A 
HETATM   74  C   UNL     1       9.326 -26.547  15.072  1.00  0.00     0.082 A 
ENDBRANCH  68  70
ENDBRANCH  67  68
ENDBRANCH  66  67
BRANCH  66  75
HETATM   75  N   UNL     1      12.352 -24.430  17.754  1.00  0.00    -0.345 N 
HETATM   76  C   UNL     1      11.507 -25.116  18.552  1.00  0.00     0.209 A 
HETATM   77  N   UNL     1      10.843 -24.307  19.403  1.00  0.00    -0.255 NA
HETATM   78  C   UNL     1      11.297 -23.068  19.128  1.00  0.00     0.135 A 
HETATM   79  C   UNL     1      12.227 -23.141  18.117  1.00  0.00     0.111 A 
ENDBRANCH  66  75
ENDBRANCH  65  66
ENDBRANCH  64  65
BRANCH  64  80
HETATM   80  N   UNL     1      16.252 -22.967  17.478  1.00  0.00    -0.345 N 
HETATM   81  C   UNL     1      17.422 -22.303  17.373  1.00  0.00     0.209 A 
HETATM   82  N   UNL     1      17.781 -21.716  18.534  1.00  0.00    -0.255 NA
HETATM   83  C   UNL     1      16.792 -22.015  19.398  1.00  0.00     0.135 A 
HETATM   84  C   UNL     1      15.847 -22.775  18.752  1.00  0.00     0.111 A 
ENDBRANCH  64  80
ENDBRANCH  63  64
ENDBRANCH  62  63
BRANCH  62  85
HETATM   85  N   UNL     1      15.141 -23.767  13.065  1.00  0.00    -0.345 N 
HETATM   86  C   UNL     1      15.061 -24.477  11.919  1.00  0.00     0.209 A 
HETATM   87  N   UNL     1      13.832 -24.449  11.369  1.00  0.00    -0.255 NA
HETATM   88  C   UNL     1      13.111 -23.663  12.185  1.00  0.00     0.135 A 
HETATM   89  C   UNL     1      13.914 -23.222  13.211  1.00  0.00     0.111 A 
ENDBRANCH  62  85
ENDBRANCH  61  62
ENDBRANCH  60  61
BRANCH  60  90
HETATM   90  N   UNL     1      18.848 -20.475  13.574  1.00  0.00    -0.343 N 
HETATM   91  C   UNL     1      19.209 -19.262  13.094  1.00  0.00     0.111 A 
HETATM   92  C   UNL     1      20.040 -18.660  14.009  1.00  0.00     0.135 A 
HETATM   93  N   UNL     1      20.225 -19.488  15.051  1.00  0.00    -0.255 NA
HETATM   94  C   UNL     1      19.498 -20.583  14.755  1.00  0.00     0.209 A 
ENDBRANCH  60  90
ENDBRANCH  59  60
ENDBRANCH  58  59
ENDBRANCH  48  58
ENDBRANCH  42  43
ENDBRANCH  32  42
BRANCH  33  95
HETATM   95  O   UNL     1      15.108 -19.534  16.662  1.00  0.00    -0.390 OA
HETATM   96  H   UNL     1      14.646 -18.737  17.027  1.00  0.00     0.210 HD
ENDBRANCH  33  95
BRANCH  34  97
HETATM   97  O   UNL     1      17.424 -18.718  18.046  1.00  0.00    -0.388 OA
HETATM   98  H   UNL     1      18.380 -18.977  18.085  1.00  0.00     0.210 HD
ENDBRANCH  34  97
ENDBRANCH  28  29
ENDBRANCH   1  28
BRANCH   3  99
HETATM   99  O   UNL     1      18.908 -16.802  19.573  1.00  0.00    -0.390 OA
HETATM  100  H   UNL     1      19.442 -17.024  18.766  1.00  0.00     0.210 HD
ENDBRANCH   3  99
BRANCH   4 101
HETATM  101  O   UNL     1      16.861 -15.668  21.210  1.00  0.00    -0.376 OA
BRANCH 101 102
HETATM  102  C   UNL     1      16.038 -15.080  22.216  1.00  0.00     0.194 C 
BRANCH 102 103
HETATM  103  C   UNL     1      16.140 -15.818  23.616  1.00  0.00     0.116 C 
BRANCH 103 104
HETATM  104  N   UNL     1      17.213 -15.249  24.470  1.00  0.00    -0.343 N 
HETATM  105  C   UNL     1      18.525 -15.573  24.514  1.00  0.00     0.111 A 
HETATM  106  C   UNL     1      19.138 -14.792  25.467  1.00  0.00     0.135 A 
HETATM  107  N   UNL     1      18.220 -13.995  26.040  1.00  0.00    -0.255 NA
HETATM  108  C   UNL     1      17.062 -14.300  25.422  1.00  0.00     0.209 A 
ENDBRANCH 103 104
BRANCH 103 109
HETATM  109  C   UNL     1      14.718 -15.898  24.297  1.00  0.00     0.053 C 
BRANCH 109 110
HETATM  110  C   UNL     1      13.971 -17.237  24.713  1.00  0.00     0.094 C 
BRANCH 110 111
HETATM  111  C   UNL     1      14.151 -18.447  23.699  1.00  0.00     0.051 C 
BRANCH 111 112
HETATM  112  C   UNL     1      15.303 -19.505  23.949  1.00  0.00     0.094 C 
BRANCH 112 113
HETATM  113  N   UNL     1      16.452 -19.333  23.041  1.00  0.00    -0.345 N 
HETATM  114  C   UNL     1      17.753 -19.233  23.373  1.00  0.00     0.111 A 
HETATM  115  C   UNL     1      18.471 -19.002  22.219  1.00  0.00     0.135 A 
HETATM  116  N   UNL     1      17.624 -18.937  21.174  1.00  0.00    -0.255 NA
HETATM  117  C   UNL     1      16.403 -19.134  21.706  1.00  0.00     0.209 A 
ENDBRANCH 112 113
BRANCH 112 118
HETATM  118  C   UNL     1      14.860 -21.015  23.845  1.00  0.00     0.051 C 
BRANCH 118 119
HETATM  119  C   UNL     1      14.508 -21.623  25.236  1.00  0.00     0.094 C 
BRANCH 119 120
HETATM  120  C   UNL     1      13.621 -22.918  25.236  1.00  0.00     0.051 C 
BRANCH 120 121
HETATM  121  C   UNL     1      12.376 -23.041  26.180  1.00  0.00     0.089 C 
HETATM  122  C   UNL     1      11.929 -21.638  26.629  1.00  0.00     0.033 C 
BRANCH 121 123
HETATM  123  N   UNL     1      11.225 -23.733  25.624  1.00  0.00    -0.334 N 
HETATM  124  C   UNL     1      11.176 -24.908  24.850  1.00  0.00     0.082 A 
HETATM  125  C   UNL     1       9.889 -25.121  24.578  1.00  0.00     0.150 A 
HETATM  126  N   UNL     1       9.088 -24.108  25.151  1.00  0.00    -0.254 NA
HETATM  127  C   UNL     1       9.886 -23.313  25.750  1.00  0.00     0.210 A 
ENDBRANCH 121 123
ENDBRANCH 120 121
ENDBRANCH 119 120
BRANCH 119 128
HETATM  128  N   UNL     1      15.727 -21.805  26.050  1.00  0.00    -0.345 N 
HETATM  129  C   UNL     1      16.875 -22.428  25.698  1.00  0.00     0.209 A 
HETATM  130  N   UNL     1      17.799 -22.390  26.678  1.00  0.00    -0.255 NA
HETATM  131  C   UNL     1      17.207 -21.712  27.681  1.00  0.00     0.135 A 
HETATM  132  C   UNL     1      15.935 -21.347  27.298  1.00  0.00     0.111 A 
ENDBRANCH 119 128
ENDBRANCH 118 119
ENDBRANCH 112 118
ENDBRANCH 111 112
ENDBRANCH 110 111
BRANCH 110 133
HETATM  133  N   UNL     1      14.103 -17.546  26.162  1.00  0.00    -0.345 N 
HETATM  134  C   UNL     1      13.348 -18.339  26.948  1.00  0.00     0.111 A 
HETATM  135  C   UNL     1      13.917 -18.388  28.201  1.00  0.00     0.135 A 
HETATM  136  N   UNL     1      15.050 -17.670  28.197  1.00  0.00    -0.255 NA
HETATM  137  C   UNL     1      15.145 -17.189  26.940  1.00  0.00     0.209 A 
ENDBRANCH 110 133
ENDBRANCH 109 110
ENDBRANCH 103 109
ENDBRANCH 102 103
ENDBRANCH 101 102
ENDBRANCH   4 101
BRANCH  13 138
HETATM  138  O   UNL     1      18.782 -11.554  24.185  1.00  0.00    -0.390 OA
HETATM  139  H   UNL     1      19.322 -11.961  24.911  1.00  0.00     0.210 HD
ENDBRANCH  13 138
BRANCH  17 140
HETATM  140  O   UNL     1      21.594 -10.575  23.929  1.00  0.00    -0.388 OA
HETATM  141  H   UNL     1      22.109 -11.402  23.745  1.00  0.00     0.210 HD
ENDBRANCH  17 140
BRANCH  15 142
HETATM  142  O   UNL     1      19.919  -8.562  24.305  1.00  0.00    -0.348 OA
BRANCH 142 143
HETATM  143  C   UNL     1      18.837  -7.698  24.647  1.00  0.00     0.187 C 
HETATM  144  C   UNL     1      18.763  -7.439  26.209  1.00  0.00     0.177 C 
HETATM  145  O   UNL     1      18.182  -6.172  26.557  1.00  0.00    -0.378 OA
HETATM  146  C   UNL     1      17.226  -5.742  25.616  1.00  0.00     0.202 C 
HETATM  147  C   UNL     1      17.914  -5.359  24.288  1.00  0.00     0.173 C 
HETATM  148  C   UNL     1      19.081  -6.339  23.961  1.00  0.00     0.180 C 
BRANCH 144 149
HETATM  149  C   UNL     1      18.026  -8.562  26.963  1.00  0.00     0.215 C 
BRANCH 149 150
HETATM  150  O   UNL     1      17.325  -9.516  26.217  1.00  0.00    -0.303 OA
BRANCH 150 151
HETATM  151  C   UNL     1      16.034  -9.780  25.838  1.00  0.00     0.323 C 
HETATM  152  C   UNL     1      14.960  -8.980  26.528  1.00  0.00     0.147 C 
HETATM  153  O   UNL     1      15.918  -9.546  24.646  1.00  0.00    -0.241 OA
BRANCH 151 154
HETATM  154  O   UNL     1      15.738 -11.071  26.092  1.00  0.00    -0.132 OA
HETATM  155 NA   UNL     1      16.809 -12.155  27.415  1.00  0.00     0.000 Na
ENDBRANCH 151 154
ENDBRANCH 150 151
ENDBRANCH 149 150
ENDBRANCH 144 149
BRANCH 147 156
HETATM  156  O   UNL     1      18.356  -4.023  24.264  1.00  0.00    -0.391 OA
HETATM  157  H   UNL     1      19.194  -3.963  24.793  1.00  0.00     0.210 HD
ENDBRANCH 147 156
BRANCH 148 158
HETATM  158  O   UNL     1      20.338  -5.822  24.345  1.00  0.00    -0.390 OA
HETATM  159  H   UNL     1      20.581  -6.173  25.238  1.00  0.00     0.210 HD
ENDBRANCH 148 158
ENDBRANCH 142 143
ENDBRANCH  15 142
TORSDOF 60
ENDMDL
MODEL 4
REMARK VINA RESULT:      -6.2      4.296      8.577
REMARK WARNING: 32 MAX_TORS EXCEEDED!!!
REMARK  60 active torsions:
REMARK  status: ('A' for Active; 'I' for Inactive)
REMARK    1  A    between atoms: C_1  and  O_30 
REMARK    2  A    between atoms: C_3  and  O_9 
REMARK    3  A    between atoms: C_4  and  O_11 
REMARK    4  A    between atoms: O_11  and  C_106 
REMARK    5  A    between atoms: O_14  and  C_18 
REMARK    6  A    between atoms: O_19  and  C_22 
REMARK    7  A    between atoms: O_19  and  C_42 
REMARK    8  A    between atoms: O_21  and  C_24 
REMARK    9  A    between atoms: O_26  and  C_29 
REMARK   10  A    between atoms: C_28  and  C_34 
REMARK   11  A    between atoms: O_30  and  C_33 
REMARK   12  A    between atoms: C_31  and  O_53 
REMARK   13  A    between atoms: O_32  and  C_35 
REMARK   14  A    between atoms: C_34  and  O_59 
REMARK   15  A    between atoms: O_37  and  C_41 
REMARK   16  A    between atoms: C_39  and  C_45 
REMARK   17  A    between atoms: O_40  and  C_45 
REMARK   18  A    between atoms: O_40  and  C_157 
REMARK   19  A    between atoms: O_43  and  C_46 
REMARK   20  A    between atoms: O_48  and  C_52 
REMARK   21  A    between atoms: C_50  and  C_57 
REMARK   22  A    between atoms: O_51  and  C_57 
REMARK   23  A    between atoms: O_51  and  C_135 
REMARK   24  A    between atoms: O_53  and  C_56 
REMARK   25  A    between atoms: O_55  and  C_58 
REMARK   26  A    between atoms: O_55  and  C_60 
REMARK   27  A    between atoms: O_59  and  C_141 
REMARK   28  A    between atoms: C_60  and  C_61 
REMARK   29  A    between atoms: C_61  and  C_62 
REMARK   30  A    between atoms: C_61  and  N_75 
REMARK   31  A    between atoms: C_62  and  C_63 
REMARK   32  A    between atoms: C_63  and  C_64 
REMARK   33  A    between atoms: C_63  and  N_89 
REMARK   34  A    between atoms: C_64  and  C_65 
REMARK   35  A    between atoms: C_65  and  C_66 
REMARK   36  A    between atoms: C_65  and  N_79 
REMARK   37  A    between atoms: C_66  and  C_67 
REMARK   38  A    between atoms: C_67  and  C_68 
REMARK   39  A    between atoms: C_67  and  N_94 
REMARK   40  A    between atoms: C_68  and  C_69 
REMARK   41  A    between atoms: C_69  and  N_84 
REMARK   42  A    between atoms: N_101  and  C_107 
REMARK   43  A    between atoms: C_106  and  C_107 
REMARK   44  A    between atoms: C_107  and  C_114 
REMARK   45  A    between atoms: N_110  and  C_116 
REMARK   46  A    between atoms: C_112  and  C_116 
REMARK   47  A    between atoms: C_112  and  C_118 
REMARK   48  A    between atoms: N_113  and  C_123 
REMARK   49  A    between atoms: C_114  and  C_118 
REMARK   50  A    between atoms: C_116  and  C_120 
REMARK   51  A    between atoms: N_117  and  C_118 
REMARK   52  A    between atoms: C_120  and  C_125 
REMARK   53  A    between atoms: C_123  and  C_124 
REMARK   54  A    between atoms: C_124  and  C_125 
REMARK   55  A    between atoms: C_125  and  N_128 
REMARK   56  A    between atoms: C_135  and  C_136 
REMARK   57  A    between atoms: C_136  and  O_138 
REMARK   58  A    between atoms: C_141  and  C_142 
REMARK   59  A    between atoms: C_142  and  O_143 
REMARK   60  A    between atoms: C_157  and  O_158 
ROOT
HETATM    1  C   UNL     1      17.275 -15.172  17.951  1.00  0.00     0.187 C 
HETATM    2  C   UNL     1      16.489 -13.798  17.951  1.00  0.00     0.180 C 
HETATM    3  C   UNL     1      18.059 -15.456  19.274  1.00  0.00     0.183 C 
HETATM    4  C   UNL     1      17.322 -14.920  20.543  1.00  0.00     0.208 C 
HETATM    5  C   UNL     1      17.117 -13.418  20.187  1.00  0.00     0.292 C 
HETATM    6  C   UNL     1      17.195 -12.646  17.163  1.00  0.00     0.203 C 
HETATM    7  O   UNL     1      16.495 -11.408  17.014  1.00  0.00    -0.370 OA
HETATM    8  O   UNL     1      16.063 -13.358  19.246  1.00  0.00    -0.348 OA
HETATM    9  O   UNL     1      16.862 -12.574  21.321  1.00  0.00    -0.348 OA
HETATM   10  O   UNL     1      17.532  -9.206  22.411  1.00  0.00    -0.348 OA
HETATM   11  C   UNL     1      17.275 -10.094  21.327  1.00  0.00     0.180 C 
HETATM   12  O   UNL     1      17.240  -8.117  19.913  1.00  0.00    -0.304 OA
HETATM   13  C   UNL     1      18.575 -11.658  22.880  1.00  0.00     0.183 C 
HETATM   14  C   UNL     1      17.859 -11.535  21.516  1.00  0.00     0.187 C 
HETATM   15  C   UNL     1      18.870  -9.110  22.887  1.00  0.00     0.292 C 
HETATM   16  C   UNL     1      17.700  -9.426  20.005  1.00  0.00     0.215 C 
HETATM   17  C   UNL     1      19.590 -10.488  22.943  1.00  0.00     0.204 C 
HETATM   18 NA   UNL     1      12.311 -11.423  18.737  1.00  0.00     0.050 Na
HETATM   19  C   UNL     1      15.178 -11.440  17.514  1.00  0.00     0.261 C 
HETATM   20  C   UNL     1      14.213 -10.737  16.613  1.00  0.00     0.310 C 
HETATM   21  O   UNL     1      12.918 -10.654  16.972  1.00  0.00    -0.185 OA
HETATM   22  O   UNL     1      14.583 -10.232  15.565  1.00  0.00    -0.261 OA
HETATM   23 NA   UNL     1      13.186  -8.638  19.750  1.00  0.00     0.051 Na
HETATM   24  C   UNL     1      15.389  -7.318  21.127  1.00  0.00     0.146 C 
HETATM   25  C   UNL     1      15.954  -7.684  19.783  1.00  0.00     0.314 C 
HETATM   26  O   UNL     1      15.142  -8.626  19.269  1.00  0.00    -0.172 OA
HETATM   27  O   UNL     1      15.924  -6.662  19.117  1.00  0.00    -0.242 OA
ENDROOT
BRANCH   1  28
HETATM   28  O   UNL     1      16.370 -16.237  17.683  1.00  0.00    -0.348 OA
BRANCH  28  29
HETATM   29  C   UNL     1      16.898 -17.234  16.792  1.00  0.00     0.292 C 
HETATM   30  O   UNL     1      16.535 -16.897  15.458  1.00  0.00    -0.348 OA
HETATM   31  C   UNL     1      16.958 -17.840  14.457  1.00  0.00     0.180 C 
HETATM   32  C   UNL     1      16.871 -19.341  14.890  1.00  0.00     0.187 C 
HETATM   33  C   UNL     1      15.880 -19.483  16.043  1.00  0.00     0.183 C 
HETATM   34  C   UNL     1      16.382 -18.638  17.230  1.00  0.00     0.204 C 
BRANCH  31  35
HETATM   35  C   UNL     1      18.362 -17.505  13.881  1.00  0.00     0.203 C 
BRANCH  35  36
HETATM   36  O   UNL     1      18.781 -16.177  14.111  1.00  0.00    -0.370 OA
BRANCH  36  37
HETATM   37  C   UNL     1      19.968 -16.163  14.852  1.00  0.00     0.262 C 
BRANCH  37  38
HETATM   38  C   UNL     1      20.107 -14.826  15.503  1.00  0.00     0.321 C 
HETATM   39  O   UNL     1      20.833 -14.689  16.476  1.00  0.00    -0.260 OA
BRANCH  38  40
HETATM   40  O   UNL     1      19.454 -13.763  15.001  1.00  0.00    -0.147 OA
HETATM   41 NA   UNL     1      17.527 -13.938  14.451  1.00  0.00     0.000 Na
ENDBRANCH  38  40
ENDBRANCH  37  38
ENDBRANCH  36  37
ENDBRANCH  35  36
ENDBRANCH  31  35
BRANCH  32  42
HETATM   42  O   UNL     1      16.378 -20.141  13.821  1.00  0.00    -0.348 OA
BRANCH  42  43
HETATM   43  C   UNL     1      17.342 -20.923  13.149  1.00  0.00     0.292 C 
HETATM   44  O   UNL     1      17.032 -20.897  11.753  1.00  0.00    -0.351 OA
HETATM   45  C   UNL     1      16.937 -22.165  11.126  1.00  0.00     0.151 C 
HETATM   46  C   UNL     1      18.175 -23.035  11.445  1.00  0.00     0.068 C 
HETATM   47  C   UNL     1      18.421 -23.174  12.972  1.00  0.00     0.154 C 
HETATM   48  C   UNL     1      17.423 -22.347  13.812  1.00  0.00     0.205 C 
BRANCH  45  49
HETATM   49  C   UNL     1      16.836 -21.954   9.600  1.00  0.00     0.200 C 
BRANCH  49  50
HETATM   50  O   UNL     1      16.357 -23.098   8.916  1.00  0.00    -0.379 OA
BRANCH  50  51
HETATM   51  C   UNL     1      14.944 -23.169   8.899  1.00  0.00     0.281 C 
BRANCH  51  52
HETATM   52  C   UNL     1      14.436 -22.805   7.532  1.00  0.00     0.313 C 
HETATM   53  O   UNL     1      14.531 -23.589   6.600  1.00  0.00    -0.260 OA
BRANCH  52  54
HETATM   54  O   UNL     1      13.872 -21.601   7.325  1.00  0.00    -0.148 OA
HETATM   55 NA   UNL     1      12.110 -21.437   6.365  1.00  0.00     0.000 Na
ENDBRANCH  52  54
ENDBRANCH  51  52
ENDBRANCH  50  51
ENDBRANCH  49  50
ENDBRANCH  45  49
BRANCH  47  56
HETATM   56  O   UNL     1      18.445 -24.520  13.380  1.00  0.00    -0.393 OA
HETATM   57  H   UNL     1      17.951 -24.585  14.240  1.00  0.00     0.210 HD
ENDBRANCH  47  56
BRANCH  48  58
HETATM   58  O   UNL     1      16.192 -23.057  13.841  1.00  0.00    -0.376 OA
BRANCH  58  59
HETATM   59  C   UNL     1      15.613 -23.202  15.130  1.00  0.00     0.194 C 
BRANCH  59  60
HETATM   60  C   UNL     1      14.052 -23.199  15.138  1.00  0.00     0.116 C 
BRANCH  60  61
HETATM   61  C   UNL     1      13.491 -22.191  14.070  1.00  0.00     0.053 C 
BRANCH  61  62
HETATM   62  C   UNL     1      11.938 -21.987  13.896  1.00  0.00     0.094 C 
BRANCH  62  63
HETATM   63  C   UNL     1      11.630 -20.646  13.115  1.00  0.00     0.051 C 
BRANCH  63  64
HETATM   64  C   UNL     1      11.932 -20.547  11.581  1.00  0.00     0.094 C 
BRANCH  64  65
HETATM   65  C   UNL     1      10.728 -19.956  10.762  1.00  0.00     0.051 C 
BRANCH  65  66
HETATM   66  C   UNL     1      10.249 -20.928   9.648  1.00  0.00     0.094 C 
BRANCH  66  67
HETATM   67  C   UNL     1       9.812 -22.356  10.121  1.00  0.00     0.051 C 
BRANCH  67  68
HETATM   68  C   UNL     1       8.455 -22.560  10.867  1.00  0.00     0.089 C 
HETATM   69  C   UNL     1       8.236 -21.399  11.852  1.00  0.00     0.033 C 
BRANCH  68  70
HETATM   70  N   UNL     1       7.279 -22.676  10.020  1.00  0.00    -0.334 N 
HETATM   71  C   UNL     1       6.167 -21.813  10.054  1.00  0.00     0.210 A 
HETATM   72  N   UNL     1       5.281 -22.157   9.202  1.00  0.00    -0.254 NA
HETATM   73  C   UNL     1       5.787 -23.297   8.538  1.00  0.00     0.150 A 
HETATM   74  C   UNL     1       6.988 -23.617   9.016  1.00  0.00     0.082 A 
ENDBRANCH  68  70
ENDBRANCH  67  68
ENDBRANCH  66  67
BRANCH  66  75
HETATM   75  N   UNL     1       9.266 -20.306   8.748  1.00  0.00    -0.345 N 
HETATM   76  C   UNL     1       8.581 -19.155   8.920  1.00  0.00     0.209 A 
HETATM   77  N   UNL     1       7.773 -18.885   7.875  1.00  0.00    -0.255 NA
HETATM   78  C   UNL     1       7.965 -19.904   7.015  1.00  0.00     0.135 A 
HETATM   79  C   UNL     1       8.886 -20.778   7.547  1.00  0.00     0.111 A 
ENDBRANCH  66  75
ENDBRANCH  65  66
ENDBRANCH  64  65
BRANCH  64  80
HETATM   80  N   UNL     1      13.110 -19.692  11.322  1.00  0.00    -0.345 N 
HETATM   81  C   UNL     1      13.836 -19.571  10.191  1.00  0.00     0.209 A 
HETATM   82  N   UNL     1      14.823 -18.659  10.313  1.00  0.00    -0.255 NA
HETATM   83  C   UNL     1      14.704 -18.182  11.568  1.00  0.00     0.135 A 
HETATM   84  C   UNL     1      13.649 -18.807  12.187  1.00  0.00     0.111 A 
ENDBRANCH  64  80
ENDBRANCH  63  64
ENDBRANCH  62  63
BRANCH  62  85
HETATM   85  N   UNL     1      11.227 -23.216  13.471  1.00  0.00    -0.345 N 
HETATM   86  C   UNL     1      10.083 -23.690  14.011  1.00  0.00     0.209 A 
HETATM   87  N   UNL     1       9.706 -24.871  13.485  1.00  0.00    -0.255 NA
HETATM   88  C   UNL     1      10.668 -25.173  12.597  1.00  0.00     0.135 A 
HETATM   89  C   UNL     1      11.614 -24.175  12.603  1.00  0.00     0.111 A 
ENDBRANCH  62  85
ENDBRANCH  61  62
ENDBRANCH  60  61
BRANCH  60  90
HETATM   90  N   UNL     1      13.475 -23.051  16.497  1.00  0.00    -0.343 N 
HETATM   91  C   UNL     1      12.422 -23.689  17.060  1.00  0.00     0.111 A 
HETATM   92  C   UNL     1      12.256 -23.214  18.339  1.00  0.00     0.135 A 
HETATM   93  N   UNL     1      13.178 -22.268  18.583  1.00  0.00    -0.255 NA
HETATM   94  C   UNL     1      13.896 -22.184  17.447  1.00  0.00     0.209 A 
ENDBRANCH  60  90
ENDBRANCH  59  60
ENDBRANCH  58  59
ENDBRANCH  48  58
ENDBRANCH  42  43
ENDBRANCH  32  42
BRANCH  33  95
HETATM   95  O   UNL     1      14.576 -19.137  15.633  1.00  0.00    -0.390 OA
HETATM   96  H   UNL     1      14.594 -18.262  15.169  1.00  0.00     0.210 HD
ENDBRANCH  33  95
BRANCH  34  97
HETATM   97  O   UNL     1      15.431 -18.599  18.265  1.00  0.00    -0.388 OA
HETATM   98  H   UNL     1      14.539 -18.755  17.864  1.00  0.00     0.210 HD
ENDBRANCH  34  97
ENDBRANCH  28  29
ENDBRANCH   1  28
BRANCH   3  99
HETATM   99  O   UNL     1      18.362 -16.822  19.388  1.00  0.00    -0.390 OA
HETATM  100  H   UNL     1      19.321 -16.926  19.150  1.00  0.00     0.210 HD
ENDBRANCH   3  99
BRANCH   4 101
HETATM  101  O   UNL     1      16.131 -15.700  20.772  1.00  0.00    -0.376 OA
BRANCH 101 102
HETATM  102  C   UNL     1      16.062 -16.333  22.049  1.00  0.00     0.194 C 
BRANCH 102 103
HETATM  103  C   UNL     1      14.956 -17.468  22.125  1.00  0.00     0.116 C 
BRANCH 103 104
HETATM  104  N   UNL     1      15.495 -18.798  21.741  1.00  0.00    -0.343 N 
HETATM  105  C   UNL     1      14.829 -19.953  21.523  1.00  0.00     0.111 A 
HETATM  106  C   UNL     1      15.742 -20.932  21.201  1.00  0.00     0.135 A 
HETATM  107  N   UNL     1      16.979 -20.409  21.238  1.00  0.00    -0.255 NA
HETATM  108  C   UNL     1      16.800 -19.117  21.576  1.00  0.00     0.209 A 
ENDBRANCH 103 104
BRANCH 103 109
HETATM  109  C   UNL     1      14.222 -17.424  23.520  1.00  0.00     0.053 C 
BRANCH 109 110
HETATM  110  C   UNL     1      14.873 -17.815  24.916  1.00  0.00     0.094 C 
BRANCH 110 111
HETATM  111  C   UNL     1      14.234 -17.092  26.178  1.00  0.00     0.051 C 
BRANCH 111 112
HETATM  112  C   UNL     1      15.166 -16.681  27.392  1.00  0.00     0.094 C 
BRANCH 112 113
HETATM  113  N   UNL     1      15.527 -17.821  28.254  1.00  0.00    -0.345 N 
HETATM  114  C   UNL     1      16.733 -18.101  28.783  1.00  0.00     0.111 A 
HETATM  115  C   UNL     1      16.636 -19.302  29.455  1.00  0.00     0.135 A 
HETATM  116  N   UNL     1      15.384 -19.781  29.330  1.00  0.00    -0.255 NA
HETATM  117  C   UNL     1      14.735 -18.863  28.589  1.00  0.00     0.209 A 
ENDBRANCH 112 113
BRANCH 112 118
HETATM  118  C   UNL     1      14.581 -15.561  28.336  1.00  0.00     0.051 C 
BRANCH 118 119
HETATM  119  C   UNL     1      15.363 -14.218  28.211  1.00  0.00     0.094 C 
BRANCH 119 120
HETATM  120  C   UNL     1      16.268 -14.044  26.940  1.00  0.00     0.051 C 
BRANCH 120 121
HETATM  121  C   UNL     1      17.820 -13.870  27.075  1.00  0.00     0.089 C 
HETATM  122  C   UNL     1      18.325 -14.668  28.291  1.00  0.00     0.033 C 
BRANCH 121 123
HETATM  123  N   UNL     1      18.603 -14.259  25.914  1.00  0.00    -0.334 N 
HETATM  124  C   UNL     1      19.943 -13.965  25.599  1.00  0.00     0.082 A 
HETATM  125  C   UNL     1      20.184 -14.538  24.420  1.00  0.00     0.150 A 
HETATM  126  N   UNL     1      19.028 -15.199  23.947  1.00  0.00    -0.254 NA
HETATM  127  C   UNL     1      18.124 -15.020  24.829  1.00  0.00     0.210 A 
ENDBRANCH 121 123
ENDBRANCH 120 121
ENDBRANCH 119 120
BRANCH 119 128
HETATM  128  N   UNL     1      14.456 -13.067  28.389  1.00  0.00    -0.345 N 
HETATM  129  C   UNL     1      14.674 -11.778  28.044  1.00  0.00     0.209 A 
HETATM  130  N   UNL     1      13.621 -10.987  28.328  1.00  0.00    -0.255 NA
HETATM  131  C   UNL     1      12.706 -11.815  28.867  1.00  0.00     0.135 A 
HETATM  132  C   UNL     1      13.213 -13.096  28.903  1.00  0.00     0.111 A 
ENDBRANCH 119 128
ENDBRANCH 118 119
ENDBRANCH 112 118
ENDBRANCH 111 112
ENDBRANCH 110 111
BRANCH 110 133
HETATM  133  N   UNL     1      15.145 -19.272  25.039  1.00  0.00    -0.345 N 
HETATM  134  C   UNL     1      16.309 -19.919  25.243  1.00  0.00     0.111 A 
HETATM  135  C   UNL     1      16.049 -21.263  25.382  1.00  0.00     0.135 A 
HETATM  136  N   UNL     1      14.724 -21.462  25.315  1.00  0.00    -0.255 NA
HETATM  137  C   UNL     1      14.202 -20.232  25.127  1.00  0.00     0.209 A 
ENDBRANCH 110 133
ENDBRANCH 109 110
ENDBRANCH 103 109
ENDBRANCH 102 103
ENDBRANCH 101 102
ENDBRANCH   4 101
BRANCH  13 138
HETATM  138  O   UNL     1      17.668 -11.575  23.950  1.00  0.00    -0.390 OA
HETATM  139  H   UNL     1      18.210 -11.414  24.766  1.00  0.00     0.210 HD
ENDBRANCH  13 138
BRANCH  17 140
HETATM  140  O   UNL     1      20.485 -10.581  24.024  1.00  0.00    -0.388 OA
HETATM  141  H   UNL     1      21.024  -9.749  24.045  1.00  0.00     0.210 HD
ENDBRANCH  17 140
BRANCH  15 142
HETATM  142  O   UNL     1      18.766  -8.577  24.201  1.00  0.00    -0.348 OA
BRANCH 142 143
HETATM  143  C   UNL     1      18.554  -7.168  24.261  1.00  0.00     0.187 C 
HETATM  144  C   UNL     1      18.758  -6.606  25.729  1.00  0.00     0.177 C 
HETATM  145  O   UNL     1      19.187  -5.235  25.766  1.00  0.00    -0.378 OA
HETATM  146  C   UNL     1      18.707  -4.491  24.671  1.00  0.00     0.202 C 
HETATM  147  C   UNL     1      19.399  -4.947  23.368  1.00  0.00     0.173 C 
HETATM  148  C   UNL     1      19.600  -6.491  23.353  1.00  0.00     0.180 C 
BRANCH 144 149
HETATM  149  C   UNL     1      17.506  -6.773  26.609  1.00  0.00     0.215 C 
BRANCH 149 150
HETATM  150  O   UNL     1      16.410  -7.463  26.082  1.00  0.00    -0.303 OA
BRANCH 150 151
HETATM  151  C   UNL     1      15.209  -7.182  25.479  1.00  0.00     0.323 C 
HETATM  152  C   UNL     1      13.998  -7.183  26.375  1.00  0.00     0.147 C 
HETATM  153  O   UNL     1      15.268  -6.065  24.990  1.00  0.00    -0.241 OA
BRANCH 151 154
HETATM  154  O   UNL     1      14.951  -8.099  24.525  1.00  0.00    -0.132 OA
HETATM  155 NA   UNL     1      16.204  -9.643  24.183  1.00  0.00     0.000 Na
ENDBRANCH 151 154
ENDBRANCH 150 151
ENDBRANCH 149 150
ENDBRANCH 144 149
BRANCH 147 156
HETATM  156  O   UNL     1      20.615  -4.278  23.130  1.00  0.00    -0.391 OA
HETATM  157  H   UNL     1      20.990  -4.610  22.272  1.00  0.00     0.210 HD
ENDBRANCH 147 156
BRANCH 148 158
HETATM  158  O   UNL     1      20.901  -6.867  23.751  1.00  0.00    -0.390 OA
HETATM  159  H   UNL     1      21.185  -7.667  23.242  1.00  0.00     0.210 HD
ENDBRANCH 148 158
ENDBRANCH 142 143
ENDBRANCH  15 142
TORSDOF 60
ENDMDL
MODEL 5
REMARK VINA RESULT:      -6.2      6.924     13.987
REMARK WARNING: 32 MAX_TORS EXCEEDED!!!
REMARK  60 active torsions:
REMARK  status: ('A' for Active; 'I' for Inactive)
REMARK    1  A    between atoms: C_1  and  O_30 
REMARK    2  A    between atoms: C_3  and  O_9 
REMARK    3  A    between atoms: C_4  and  O_11 
REMARK    4  A    between atoms: O_11  and  C_106 
REMARK    5  A    between atoms: O_14  and  C_18 
REMARK    6  A    between atoms: O_19  and  C_22 
REMARK    7  A    between atoms: O_19  and  C_42 
REMARK    8  A    between atoms: O_21  and  C_24 
REMARK    9  A    between atoms: O_26  and  C_29 
REMARK   10  A    between atoms: C_28  and  C_34 
REMARK   11  A    between atoms: O_30  and  C_33 
REMARK   12  A    between atoms: C_31  and  O_53 
REMARK   13  A    between atoms: O_32  and  C_35 
REMARK   14  A    between atoms: C_34  and  O_59 
REMARK   15  A    between atoms: O_37  and  C_41 
REMARK   16  A    between atoms: C_39  and  C_45 
REMARK   17  A    between atoms: O_40  and  C_45 
REMARK   18  A    between atoms: O_40  and  C_157 
REMARK   19  A    between atoms: O_43  and  C_46 
REMARK   20  A    between atoms: O_48  and  C_52 
REMARK   21  A    between atoms: C_50  and  C_57 
REMARK   22  A    between atoms: O_51  and  C_57 
REMARK   23  A    between atoms: O_51  and  C_135 
REMARK   24  A    between atoms: O_53  and  C_56 
REMARK   25  A    between atoms: O_55  and  C_58 
REMARK   26  A    between atoms: O_55  and  C_60 
REMARK   27  A    between atoms: O_59  and  C_141 
REMARK   28  A    between atoms: C_60  and  C_61 
REMARK   29  A    between atoms: C_61  and  C_62 
REMARK   30  A    between atoms: C_61  and  N_75 
REMARK   31  A    between atoms: C_62  and  C_63 
REMARK   32  A    between atoms: C_63  and  C_64 
REMARK   33  A    between atoms: C_63  and  N_89 
REMARK   34  A    between atoms: C_64  and  C_65 
REMARK   35  A    between atoms: C_65  and  C_66 
REMARK   36  A    between atoms: C_65  and  N_79 
REMARK   37  A    between atoms: C_66  and  C_67 
REMARK   38  A    between atoms: C_67  and  C_68 
REMARK   39  A    between atoms: C_67  and  N_94 
REMARK   40  A    between atoms: C_68  and  C_69 
REMARK   41  A    between atoms: C_69  and  N_84 
REMARK   42  A    between atoms: N_101  and  C_107 
REMARK   43  A    between atoms: C_106  and  C_107 
REMARK   44  A    between atoms: C_107  and  C_114 
REMARK   45  A    between atoms: N_110  and  C_116 
REMARK   46  A    between atoms: C_112  and  C_116 
REMARK   47  A    between atoms: C_112  and  C_118 
REMARK   48  A    between atoms: N_113  and  C_123 
REMARK   49  A    between atoms: C_114  and  C_118 
REMARK   50  A    between atoms: C_116  and  C_120 
REMARK   51  A    between atoms: N_117  and  C_118 
REMARK   52  A    between atoms: C_120  and  C_125 
REMARK   53  A    between atoms: C_123  and  C_124 
REMARK   54  A    between atoms: C_124  and  C_125 
REMARK   55  A    between atoms: C_125  and  N_128 
REMARK   56  A    between atoms: C_135  and  C_136 
REMARK   57  A    between atoms: C_136  and  O_138 
REMARK   58  A    between atoms: C_141  and  C_142 
REMARK   59  A    between atoms: C_142  and  O_143 
REMARK   60  A    between atoms: C_157  and  O_158 
ROOT
HETATM    1  C   UNL     1      21.261 -10.497  24.983  1.00  0.00     0.187 C 
HETATM    2  C   UNL     1      21.686  -9.930  23.568  1.00  0.00     0.180 C 
HETATM    3  C   UNL     1      21.341  -9.446  26.139  1.00  0.00     0.183 C 
HETATM    4  C   UNL     1      20.963  -8.004  25.673  1.00  0.00     0.208 C 
HETATM    5  C   UNL     1      21.945  -7.779  24.486  1.00  0.00     0.292 C 
HETATM    6  C   UNL     1      23.132 -10.322  23.118  1.00  0.00     0.203 C 
HETATM    7  O   UNL     1      23.550  -9.951  21.802  1.00  0.00    -0.370 OA
HETATM    8  O   UNL     1      21.449  -8.528  23.394  1.00  0.00    -0.348 OA
HETATM    9  O   UNL     1      22.141  -6.399  24.136  1.00  0.00    -0.348 OA
HETATM   10  O   UNL     1      24.748  -4.254  22.881  1.00  0.00    -0.348 OA
HETATM   11  C   UNL     1      24.161  -5.552  22.905  1.00  0.00     0.180 C 
HETATM   12  O   UNL     1      25.801  -6.159  21.215  1.00  0.00    -0.304 OA
HETATM   13  C   UNL     1      23.652  -4.794  25.294  1.00  0.00     0.183 C 
HETATM   14  C   UNL     1      23.514  -5.947  24.275  1.00  0.00     0.187 C 
HETATM   15  C   UNL     1      25.639  -3.910  23.936  1.00  0.00     0.292 C 
HETATM   16  C   UNL     1      25.180  -6.584  22.384  1.00  0.00     0.215 C 
HETATM   17  C   UNL     1      25.155  -4.419  25.324  1.00  0.00     0.204 C 
HETATM   18 NA   UNL     1      20.334  -7.942  19.332  1.00  0.00     0.050 Na
HETATM   19  C   UNL     1      22.527  -9.367  21.029  1.00  0.00     0.261 C 
HETATM   20  C   UNL     1      22.535  -9.859  19.616  1.00  0.00     0.310 C 
HETATM   21  O   UNL     1      21.635  -9.368  18.742  1.00  0.00    -0.185 OA
HETATM   22  O   UNL     1      23.347 -10.690  19.242  1.00  0.00    -0.261 OA
HETATM   23 NA   UNL     1      22.689  -6.096  18.561  1.00  0.00     0.051 Na
HETATM   24  C   UNL     1      24.855  -4.563  19.767  1.00  0.00     0.146 C 
HETATM   25  C   UNL     1      25.248  -5.998  19.979  1.00  0.00     0.314 C 
HETATM   26  O   UNL     1      24.132  -6.731  19.814  1.00  0.00    -0.172 OA
HETATM   27  O   UNL     1      26.075  -6.250  19.118  1.00  0.00    -0.242 OA
ENDROOT
BRANCH   1  28
HETATM   28  O   UNL     1      19.947 -11.036  24.904  1.00  0.00    -0.348 OA
BRANCH  28  29
HETATM   29  C   UNL     1      19.531 -11.354  23.566  1.00  0.00     0.292 C 
HETATM   30  O   UNL     1      18.198 -10.893  23.375  1.00  0.00    -0.348 OA
HETATM   31  C   UNL     1      17.632 -11.189  22.085  1.00  0.00     0.180 C 
HETATM   32  C   UNL     1      18.019 -12.589  21.504  1.00  0.00     0.187 C 
HETATM   33  C   UNL     1      18.458 -13.510  22.640  1.00  0.00     0.183 C 
HETATM   34  C   UNL     1      19.686 -12.888  23.332  1.00  0.00     0.204 C 
BRANCH  31  35
HETATM   35  C   UNL     1      17.892 -10.060  21.049  1.00  0.00     0.203 C 
BRANCH  35  36
HETATM   36  O   UNL     1      16.791  -9.203  20.837  1.00  0.00    -0.370 OA
BRANCH  36  37
HETATM   37  C   UNL     1      17.229  -7.949  20.395  1.00  0.00     0.262 C 
BRANCH  37  38
HETATM   38  C   UNL     1      16.365  -7.518  19.256  1.00  0.00     0.321 C 
HETATM   39  O   UNL     1      16.073  -6.340  19.117  1.00  0.00    -0.260 OA
BRANCH  38  40
HETATM   40  O   UNL     1      15.929  -8.424  18.363  1.00  0.00    -0.147 OA
HETATM   41 NA   UNL     1      17.186  -9.832  17.667  1.00  0.00     0.000 Na
ENDBRANCH  38  40
ENDBRANCH  37  38
ENDBRANCH  36  37
ENDBRANCH  35  36
ENDBRANCH  31  35
BRANCH  32  42
HETATM   42  O   UNL     1      16.893 -13.202  20.887  1.00  0.00    -0.348 OA
BRANCH  42  43
HETATM   43  C   UNL     1      16.622 -12.789  19.564  1.00  0.00     0.292 C 
HETATM   44  O   UNL     1      15.331 -13.286  19.205  1.00  0.00    -0.351 OA
HETATM   45  C   UNL     1      15.274 -14.015  17.990  1.00  0.00     0.151 C 
HETATM   46  C   UNL     1      15.951 -13.232  16.842  1.00  0.00     0.068 C 
HETATM   47  C   UNL     1      17.407 -12.818  17.187  1.00  0.00     0.154 C 
HETATM   48  C   UNL     1      17.812 -13.214  18.625  1.00  0.00     0.205 C 
BRANCH  45  49
HETATM   49  C   UNL     1      13.793 -14.270  17.636  1.00  0.00     0.200 C 
BRANCH  49  50
HETATM   50  O   UNL     1      13.309 -13.399  16.630  1.00  0.00    -0.379 OA
BRANCH  50  51
HETATM   51  C   UNL     1      12.401 -12.438  17.133  1.00  0.00     0.281 C 
BRANCH  51  52
HETATM   52  C   UNL     1      13.091 -11.109  17.258  1.00  0.00     0.313 C 
HETATM   53  O   UNL     1      12.945 -10.419  18.256  1.00  0.00    -0.260 OA
BRANCH  52  54
HETATM   54  O   UNL     1      13.877 -10.665  16.259  1.00  0.00    -0.148 OA
HETATM   55 NA   UNL     1      13.081  -9.815  14.618  1.00  0.00     0.000 Na
ENDBRANCH  52  54
ENDBRANCH  51  52
ENDBRANCH  50  51
ENDBRANCH  49  50
ENDBRANCH  45  49
BRANCH  47  56
HETATM   56  O   UNL     1      18.329 -13.303  16.242  1.00  0.00    -0.393 OA
HETATM   57  H   UNL     1      19.029 -13.810  16.734  1.00  0.00     0.210 HD
ENDBRANCH  47  56
BRANCH  48  58
HETATM   58  O   UNL     1      18.097 -14.606  18.625  1.00  0.00    -0.376 OA
BRANCH  58  59
HETATM   59  C   UNL     1      19.427 -14.946  18.988  1.00  0.00     0.194 C 
BRANCH  59  60
HETATM   60  C   UNL     1      20.272 -15.565  17.829  1.00  0.00     0.116 C 
BRANCH  60  61
HETATM   61  C   UNL     1      19.380 -16.488  16.922  1.00  0.00     0.053 C 
BRANCH  61  62
HETATM   62  C   UNL     1      19.415 -18.055  17.092  1.00  0.00     0.094 C 
BRANCH  62  63
HETATM   63  C   UNL     1      18.234 -18.547  18.023  1.00  0.00     0.051 C 
BRANCH  63  64
HETATM   64  C   UNL     1      16.991 -17.625  18.263  1.00  0.00     0.094 C 
BRANCH  64  65
HETATM   65  C   UNL     1      15.764 -18.013  17.362  1.00  0.00     0.051 C 
BRANCH  65  66
HETATM   66  C   UNL     1      16.161 -18.149  15.865  1.00  0.00     0.094 C 
BRANCH  66  67
HETATM   67  C   UNL     1      15.781 -19.500  15.171  1.00  0.00     0.051 C 
BRANCH  67  68
HETATM   68  C   UNL     1      16.334 -19.842  13.752  1.00  0.00     0.089 C 
HETATM   69  C   UNL     1      16.428 -21.370  13.597  1.00  0.00     0.033 C 
BRANCH  68  70
HETATM   70  N   UNL     1      15.574 -19.310  12.632  1.00  0.00    -0.334 N 
HETATM   71  C   UNL     1      16.081 -18.439  11.649  1.00  0.00     0.210 A 
HETATM   72  N   UNL     1      15.189 -18.133  10.789  1.00  0.00    -0.254 NA
HETATM   73  C   UNL     1      14.013 -18.816  11.174  1.00  0.00     0.150 A 
HETATM   74  C   UNL     1      14.231 -19.531  12.276  1.00  0.00     0.082 A 
ENDBRANCH  68  70
ENDBRANCH  67  68
ENDBRANCH  66  67
BRANCH  66  75
HETATM   75  N   UNL     1      15.763 -16.975  15.072  1.00  0.00    -0.345 N 
HETATM   76  C   UNL     1      14.517 -16.560  14.757  1.00  0.00     0.209 A 
HETATM   77  N   UNL     1      14.531 -15.428  14.023  1.00  0.00    -0.255 NA
HETATM   78  C   UNL     1      15.836 -15.124  13.879  1.00  0.00     0.135 A 
HETATM   79  C   UNL     1      16.596 -16.071  14.527  1.00  0.00     0.111 A 
ENDBRANCH  66  75
ENDBRANCH  65  66
ENDBRANCH  64  65
BRANCH  64  80
HETATM   80  N   UNL     1      16.546 -17.683  19.671  1.00  0.00    -0.345 N 
HETATM   81  C   UNL     1      16.102 -16.683  20.461  1.00  0.00     0.209 A 
HETATM   82  N   UNL     1      15.745 -17.121  21.687  1.00  0.00    -0.255 NA
HETATM   83  C   UNL     1      15.965 -18.450  21.661  1.00  0.00     0.135 A 
HETATM   84  C   UNL     1      16.448 -18.800  20.423  1.00  0.00     0.111 A 
ENDBRANCH  64  80
ENDBRANCH  63  64
ENDBRANCH  62  63
BRANCH  62  85
HETATM   85  N   UNL     1      19.643 -18.780  15.820  1.00  0.00    -0.345 N 
HETATM   86  C   UNL     1      19.639 -20.122  15.667  1.00  0.00     0.209 A 
HETATM   87  N   UNL     1      19.959 -20.509  14.417  1.00  0.00    -0.255 NA
HETATM   88  C   UNL     1      20.205 -19.364  13.759  1.00  0.00     0.135 A 
HETATM   89  C   UNL     1      20.038 -18.305  14.619  1.00  0.00     0.111 A 
ENDBRANCH  62  85
ENDBRANCH  61  62
ENDBRANCH  60  61
BRANCH  60  90
HETATM   90  N   UNL     1      21.538 -16.183  18.294  1.00  0.00    -0.343 N 
HETATM   91  C   UNL     1      22.629 -16.551  17.582  1.00  0.00     0.111 A 
HETATM   92  C   UNL     1      23.554 -17.089  18.446  1.00  0.00     0.135 A 
HETATM   93  N   UNL     1      23.050 -17.084  19.692  1.00  0.00    -0.255 NA
HETATM   94  C   UNL     1      21.825 -16.538  19.568  1.00  0.00     0.209 A 
ENDBRANCH  60  90
ENDBRANCH  59  60
ENDBRANCH  58  59
ENDBRANCH  48  58
ENDBRANCH  42  43
ENDBRANCH  32  42
BRANCH  33  95
HETATM   95  O   UNL     1      17.392 -13.758  23.529  1.00  0.00    -0.390 OA
HETATM   96  H   UNL     1      17.663 -14.442  24.193  1.00  0.00     0.210 HD
ENDBRANCH  33  95
BRANCH  34  97
HETATM   97  O   UNL     1      20.038 -13.608  24.487  1.00  0.00    -0.388 OA
HETATM   98  H   UNL     1      20.175 -12.957  25.221  1.00  0.00     0.210 HD
ENDBRANCH  34  97
ENDBRANCH  28  29
ENDBRANCH   1  28
BRANCH   3  99
HETATM   99  O   UNL     1      20.568  -9.857  27.237  1.00  0.00    -0.390 OA
HETATM  100  H   UNL     1      20.577 -10.850  27.241  1.00  0.00     0.210 HD
ENDBRANCH   3  99
BRANCH   4 101
HETATM  101  O   UNL     1      19.555  -7.951  25.368  1.00  0.00    -0.376 OA
BRANCH 101 102
HETATM  102  C   UNL     1      18.913  -6.719  25.694  1.00  0.00     0.194 C 
BRANCH 102 103
HETATM  103  C   UNL     1      17.538  -6.509  24.932  1.00  0.00     0.116 C 
BRANCH 103 104
HETATM  104  N   UNL     1      17.657  -5.524  23.827  1.00  0.00    -0.343 N 
HETATM  105  C   UNL     1      18.549  -4.519  23.678  1.00  0.00     0.111 A 
HETATM  106  C   UNL     1      18.270  -3.855  22.505  1.00  0.00     0.135 A 
HETATM  107  N   UNL     1      17.196  -4.417  21.926  1.00  0.00    -0.255 NA
HETATM  108  C   UNL     1      16.840  -5.420  22.754  1.00  0.00     0.209 A 
ENDBRANCH 103 104
BRANCH 103 109
HETATM  109  C   UNL     1      16.925  -7.903  24.518  1.00  0.00     0.053 C 
BRANCH 109 110
HETATM  110  C   UNL     1      15.640  -8.574  25.171  1.00  0.00     0.094 C 
BRANCH 110 111
HETATM  111  C   UNL     1      15.945  -9.603  26.342  1.00  0.00     0.051 C 
BRANCH 111 112
HETATM  112  C   UNL     1      15.331 -11.062  26.272  1.00  0.00     0.094 C 
BRANCH 112 113
HETATM  113  N   UNL     1      14.352 -11.328  27.341  1.00  0.00    -0.345 N 
HETATM  114  C   UNL     1      13.375 -12.255  27.347  1.00  0.00     0.111 A 
HETATM  115  C   UNL     1      12.647 -12.099  28.508  1.00  0.00     0.135 A 
HETATM  116  N   UNL     1      13.150 -11.069  29.213  1.00  0.00    -0.255 NA
HETATM  117  C   UNL     1      14.180 -10.615  28.475  1.00  0.00     0.209 A 
ENDBRANCH 112 113
BRANCH 112 118
HETATM  118  C   UNL     1      16.386 -12.234  26.317  1.00  0.00     0.051 C 
BRANCH 118 119
HETATM  119  C   UNL     1      16.450 -12.916  27.718  1.00  0.00     0.094 C 
BRANCH 119 120
HETATM  120  C   UNL     1      16.270 -14.475  27.753  1.00  0.00     0.051 C 
BRANCH 120 121
HETATM  121  C   UNL     1      16.643 -15.356  26.511  1.00  0.00     0.089 C 
HETATM  122  C   UNL     1      17.642 -16.447  26.934  1.00  0.00     0.033 C 
BRANCH 121 123
HETATM  123  N   UNL     1      15.527 -15.992  25.830  1.00  0.00    -0.334 N 
HETATM  124  C   UNL     1      15.019 -17.297  25.972  1.00  0.00     0.082 A 
HETATM  125  C   UNL     1      14.002 -17.397  25.117  1.00  0.00     0.150 A 
HETATM  126  N   UNL     1      13.831 -16.186  24.409  1.00  0.00    -0.254 NA
HETATM  127  C   UNL     1      14.730 -15.387  24.838  1.00  0.00     0.210 A 
ENDBRANCH 121 123
ENDBRANCH 120 121
ENDBRANCH 119 120
BRANCH 119 128
HETATM  128  N   UNL     1      17.663 -12.496  28.448  1.00  0.00    -0.345 N 
HETATM  129  C   UNL     1      17.901 -11.308  29.050  1.00  0.00     0.209 A 
HETATM  130  N   UNL     1      19.107 -11.270  29.648  1.00  0.00    -0.255 NA
HETATM  131  C   UNL     1      19.644 -12.484  29.416  1.00  0.00     0.135 A 
HETATM  132  C   UNL     1      18.758 -13.243  28.682  1.00  0.00     0.111 A 
ENDBRANCH 119 128
ENDBRANCH 118 119
ENDBRANCH 112 118
ENDBRANCH 111 112
ENDBRANCH 110 111
BRANCH 110 133
HETATM  133  N   UNL     1      14.533  -7.606  25.395  1.00  0.00    -0.345 N 
HETATM  134  C   UNL     1      14.056  -7.091  26.545  1.00  0.00     0.111 A 
HETATM  135  C   UNL     1      13.086  -6.162  26.244  1.00  0.00     0.135 A 
HETATM  136  N   UNL     1      12.982  -6.053  24.911  1.00  0.00    -0.255 NA
HETATM  137  C   UNL     1      13.888  -6.928  24.424  1.00  0.00     0.209 A 
ENDBRANCH 110 133
ENDBRANCH 109 110
ENDBRANCH 103 109
ENDBRANCH 102 103
ENDBRANCH 101 102
ENDBRANCH   4 101
BRANCH  13 138
HETATM  138  O   UNL     1      22.879  -3.681  24.924  1.00  0.00    -0.390 OA
HETATM  139  H   UNL     1      22.030  -3.745  25.435  1.00  0.00     0.210 HD
ENDBRANCH  13 138
BRANCH  17 140
HETATM  140  O   UNL     1      25.492  -3.536  26.366  1.00  0.00    -0.388 OA
HETATM  141  H   UNL     1      25.112  -2.647  26.145  1.00  0.00     0.210 HD
ENDBRANCH  17 140
BRANCH  15 142
HETATM  142  O   UNL     1      25.684  -2.489  23.944  1.00  0.00    -0.348 OA
BRANCH 142 143
HETATM  143  C   UNL     1      25.372  -1.873  22.696  1.00  0.00     0.187 C 
HETATM  144  C   UNL     1      24.970  -0.350  22.877  1.00  0.00     0.177 C 
HETATM  145  O   UNL     1      25.262   0.464  21.729  1.00  0.00    -0.378 OA
HETATM  146  C   UNL     1      25.183  -0.259  20.523  1.00  0.00     0.202 C 
HETATM  147  C   UNL     1      26.344  -1.273  20.428  1.00  0.00     0.173 C 
HETATM  148  C   UNL     1      26.636  -1.919  21.815  1.00  0.00     0.180 C 
BRANCH 144 149
HETATM  149  C   UNL     1      23.492  -0.168  23.269  1.00  0.00     0.215 C 
BRANCH 149 150
HETATM  150  O   UNL     1      22.596  -1.203  22.982  1.00  0.00    -0.303 OA
BRANCH 150 151
HETATM  151  C   UNL     1      21.704  -1.549  21.998  1.00  0.00     0.323 C 
HETATM  152  C   UNL     1      21.959  -2.858  21.299  1.00  0.00     0.147 C 
HETATM  153  O   UNL     1      20.591  -1.639  22.492  1.00  0.00    -0.241 OA
BRANCH 151 154
HETATM  154  O   UNL     1      21.710  -0.615  21.026  1.00  0.00    -0.132 OA
HETATM  155 NA   UNL     1      21.027  -1.024  19.171  1.00  0.00     0.000 Na
ENDBRANCH 151 154
ENDBRANCH 150 151
ENDBRANCH 149 150
ENDBRANCH 144 149
BRANCH 147 156
HETATM  156  O   UNL     1      27.513  -0.718  19.874  1.00  0.00    -0.391 OA
HETATM  157  H   UNL     1      28.061  -1.456  19.499  1.00  0.00     0.210 HD
ENDBRANCH 147 156
BRANCH 148 158
HETATM  158  O   UNL     1      27.713  -1.294  22.480  1.00  0.00    -0.390 OA
HETATM  159  H   UNL     1      27.722  -0.328  22.261  1.00  0.00     0.210 HD
ENDBRANCH 148 158
ENDBRANCH 142 143
ENDBRANCH  15 142
TORSDOF 60
ENDMDL
MODEL 6
REMARK VINA RESULT:      -6.1     16.050     24.084
REMARK WARNING: 32 MAX_TORS EXCEEDED!!!
REMARK  60 active torsions:
REMARK  status: ('A' for Active; 'I' for Inactive)
REMARK    1  A    between atoms: C_1  and  O_30 
REMARK    2  A    between atoms: C_3  and  O_9 
REMARK    3  A    between atoms: C_4  and  O_11 
REMARK    4  A    between atoms: O_11  and  C_106 
REMARK    5  A    between atoms: O_14  and  C_18 
REMARK    6  A    between atoms: O_19  and  C_22 
REMARK    7  A    between atoms: O_19  and  C_42 
REMARK    8  A    between atoms: O_21  and  C_24 
REMARK    9  A    between atoms: O_26  and  C_29 
REMARK   10  A    between atoms: C_28  and  C_34 
REMARK   11  A    between atoms: O_30  and  C_33 
REMARK   12  A    between atoms: C_31  and  O_53 
REMARK   13  A    between atoms: O_32  and  C_35 
REMARK   14  A    between atoms: C_34  and  O_59 
REMARK   15  A    between atoms: O_37  and  C_41 
REMARK   16  A    between atoms: C_39  and  C_45 
REMARK   17  A    between atoms: O_40  and  C_45 
REMARK   18  A    between atoms: O_40  and  C_157 
REMARK   19  A    between atoms: O_43  and  C_46 
REMARK   20  A    between atoms: O_48  and  C_52 
REMARK   21  A    between atoms: C_50  and  C_57 
REMARK   22  A    between atoms: O_51  and  C_57 
REMARK   23  A    between atoms: O_51  and  C_135 
REMARK   24  A    between atoms: O_53  and  C_56 
REMARK   25  A    between atoms: O_55  and  C_58 
REMARK   26  A    between atoms: O_55  and  C_60 
REMARK   27  A    between atoms: O_59  and  C_141 
REMARK   28  A    between atoms: C_60  and  C_61 
REMARK   29  A    between atoms: C_61  and  C_62 
REMARK   30  A    between atoms: C_61  and  N_75 
REMARK   31  A    between atoms: C_62  and  C_63 
REMARK   32  A    between atoms: C_63  and  C_64 
REMARK   33  A    between atoms: C_63  and  N_89 
REMARK   34  A    between atoms: C_64  and  C_65 
REMARK   35  A    between atoms: C_65  and  C_66 
REMARK   36  A    between atoms: C_65  and  N_79 
REMARK   37  A    between atoms: C_66  and  C_67 
REMARK   38  A    between atoms: C_67  and  C_68 
REMARK   39  A    between atoms: C_67  and  N_94 
REMARK   40  A    between atoms: C_68  and  C_69 
REMARK   41  A    between atoms: C_69  and  N_84 
REMARK   42  A    between atoms: N_101  and  C_107 
REMARK   43  A    between atoms: C_106  and  C_107 
REMARK   44  A    between atoms: C_107  and  C_114 
REMARK   45  A    between atoms: N_110  and  C_116 
REMARK   46  A    between atoms: C_112  and  C_116 
REMARK   47  A    between atoms: C_112  and  C_118 
REMARK   48  A    between atoms: N_113  and  C_123 
REMARK   49  A    between atoms: C_114  and  C_118 
REMARK   50  A    between atoms: C_116  and  C_120 
REMARK   51  A    between atoms: N_117  and  C_118 
REMARK   52  A    between atoms: C_120  and  C_125 
REMARK   53  A    between atoms: C_123  and  C_124 
REMARK   54  A    between atoms: C_124  and  C_125 
REMARK   55  A    between atoms: C_125  and  N_128 
REMARK   56  A    between atoms: C_135  and  C_136 
REMARK   57  A    between atoms: C_136  and  O_138 
REMARK   58  A    between atoms: C_141  and  C_142 
REMARK   59  A    between atoms: C_142  and  O_143 
REMARK   60  A    between atoms: C_157  and  O_158 
ROOT
HETATM    1  C   UNL     1       0.308 -18.081  -2.831  1.00  0.00     0.187 C 
HETATM    2  C   UNL     1       1.633 -18.607  -2.143  1.00  0.00     0.180 C 
HETATM    3  C   UNL     1      -0.875 -17.847  -1.835  1.00  0.00     0.183 C 
HETATM    4  C   UNL     1      -0.401 -17.329  -0.440  1.00  0.00     0.208 C 
HETATM    5  C   UNL     1       0.628 -18.421  -0.023  1.00  0.00     0.292 C 
HETATM    6  C   UNL     1       1.884 -20.142  -2.305  1.00  0.00     0.203 C 
HETATM    7  O   UNL     1       3.116 -20.677  -1.816  1.00  0.00    -0.370 OA
HETATM    8  O   UNL     1       1.800 -18.193  -0.781  1.00  0.00    -0.348 OA
HETATM    9  O   UNL     1       0.909 -18.458   1.386  1.00  0.00    -0.348 OA
HETATM   10  O   UNL     1       1.722 -20.869   3.935  1.00  0.00    -0.348 OA
HETATM   11  C   UNL     1       1.818 -20.481   2.567  1.00  0.00     0.180 C 
HETATM   12  O   UNL     1       3.274 -22.407   2.279  1.00  0.00    -0.304 OA
HETATM   13  C   UNL     1      -0.495 -19.545   3.131  1.00  0.00     0.183 C 
HETATM   14  C   UNL     1       0.565 -19.719   2.021  1.00  0.00     0.187 C 
HETATM   15  C   UNL     1       0.543 -21.549   4.351  1.00  0.00     0.292 C 
HETATM   16  C   UNL     1       2.217 -21.701   1.716  1.00  0.00     0.215 C 
HETATM   17  C   UNL     1      -0.748 -20.959   3.713  1.00  0.00     0.204 C 
HETATM   18 NA   UNL     1       5.961 -17.568  -0.166  1.00  0.00     0.050 Na
HETATM   19  C   UNL     1       4.011 -19.694  -1.347  1.00  0.00     0.261 C 
HETATM   20  C   UNL     1       5.421 -19.967  -1.765  1.00  0.00     0.310 C 
HETATM   21  O   UNL     1       6.399 -19.132  -1.364  1.00  0.00    -0.185 OA
HETATM   22  O   UNL     1       5.698 -20.936  -2.453  1.00  0.00    -0.261 OA
HETATM   23 NA   UNL     1       6.340 -19.710   2.029  1.00  0.00     0.051 Na
HETATM   24  C   UNL     1       4.797 -21.444   3.792  1.00  0.00     0.146 C 
HETATM   25  C   UNL     1       4.571 -22.011   2.419  1.00  0.00     0.314 C 
HETATM   26  O   UNL     1       4.913 -21.046   1.544  1.00  0.00    -0.172 OA
HETATM   27  O   UNL     1       5.313 -22.975   2.328  1.00  0.00    -0.242 OA
ENDROOT
BRANCH   1  28
HETATM   28  O   UNL     1       0.587 -16.882  -3.545  1.00  0.00    -0.348 OA
BRANCH  28  29
HETATM   29  C   UNL     1       1.988 -16.663  -3.783  1.00  0.00     0.292 C 
HETATM   30  O   UNL     1       2.434 -15.596  -2.954  1.00  0.00    -0.348 OA
HETATM   31  C   UNL     1       3.817 -15.233  -3.123  1.00  0.00     0.180 C 
HETATM   32  C   UNL     1       4.334 -15.288  -4.598  1.00  0.00     0.187 C 
HETATM   33  C   UNL     1       3.150 -15.196  -5.559  1.00  0.00     0.183 C 
HETATM   34  C   UNL     1       2.214 -16.393  -5.302  1.00  0.00     0.204 C 
BRANCH  31  35
HETATM   35  C   UNL     1       4.758 -16.020  -2.169  1.00  0.00     0.203 C 
BRANCH  35  36
HETATM   36  O   UNL     1       5.098 -15.326  -0.988  1.00  0.00    -0.370 OA
BRANCH  36  37
HETATM   37  C   UNL     1       5.597 -14.055  -1.297  1.00  0.00     0.262 C 
BRANCH  37  38
HETATM   38  C   UNL     1       7.089 -14.102  -1.236  1.00  0.00     0.321 C 
HETATM   39  O   UNL     1       7.648 -14.788  -0.394  1.00  0.00    -0.260 OA
BRANCH  38  40
HETATM   40  O   UNL     1       7.820 -13.411  -2.127  1.00  0.00    -0.147 OA
HETATM   41 NA   UNL     1       7.010 -12.875  -3.889  1.00  0.00     0.000 Na
ENDBRANCH  38  40
ENDBRANCH  37  38
ENDBRANCH  36  37
ENDBRANCH  35  36
ENDBRANCH  31  35
BRANCH  32  42
HETATM   42  O   UNL     1       5.177 -14.175  -4.874  1.00  0.00    -0.348 OA
BRANCH  42  43
HETATM   43  C   UNL     1       5.964 -14.280  -6.041  1.00  0.00     0.292 C 
HETATM   44  O   UNL     1       7.248 -14.782  -5.662  1.00  0.00    -0.351 OA
HETATM   45  C   UNL     1       8.357 -14.024  -6.113  1.00  0.00     0.151 C 
HETATM   46  C   UNL     1       8.254 -13.740  -7.629  1.00  0.00     0.068 C 
HETATM   47  C   UNL     1       6.910 -13.062  -8.013  1.00  0.00     0.154 C 
HETATM   48  C   UNL     1       5.959 -12.905  -6.806  1.00  0.00     0.205 C 
BRANCH  45  49
HETATM   49  C   UNL     1       9.649 -14.820  -5.826  1.00  0.00     0.200 C 
BRANCH  49  50
HETATM   50  O   UNL     1       9.762 -15.217  -4.471  1.00  0.00    -0.379 OA
BRANCH  50  51
HETATM   51  C   UNL     1      10.442 -16.448  -4.321  1.00  0.00     0.281 C 
BRANCH  51  52
HETATM   52  C   UNL     1       9.879 -17.196  -3.145  1.00  0.00     0.313 C 
HETATM   53  O   UNL     1      10.586 -17.933  -2.475  1.00  0.00    -0.260 OA
BRANCH  52  54
HETATM   54  O   UNL     1       8.579 -17.058  -2.823  1.00  0.00    -0.148 OA
HETATM   55 NA   UNL     1       7.497 -15.518  -3.536  1.00  0.00     0.000 Na
ENDBRANCH  52  54
ENDBRANCH  51  52
ENDBRANCH  50  51
ENDBRANCH  49  50
ENDBRANCH  45  49
BRANCH  47  56
HETATM   56  O   UNL     1       7.109 -11.837  -8.674  1.00  0.00    -0.393 OA
HETATM   57  H   UNL     1       7.010 -12.000  -9.651  1.00  0.00     0.210 HD
ENDBRANCH  47  56
BRANCH  48  58
HETATM   58  O   UNL     1       6.416 -11.799  -6.038  1.00  0.00    -0.376 OA
BRANCH  58  59
HETATM   59  C   UNL     1       5.394 -10.940  -5.556  1.00  0.00     0.194 C 
BRANCH  59  60
HETATM   60  C   UNL     1       5.893  -9.525  -5.124  1.00  0.00     0.116 C 
BRANCH  60  61
HETATM   61  C   UNL     1       7.216  -9.145  -5.883  1.00  0.00     0.053 C 
BRANCH  61  62
HETATM   62  C   UNL     1       7.227  -7.975  -6.939  1.00  0.00     0.094 C 
BRANCH  62  63
HETATM   63  C   UNL     1       6.722  -6.624  -6.289  1.00  0.00     0.051 C 
BRANCH  63  64
HETATM   64  C   UNL     1       5.446  -5.913  -6.855  1.00  0.00     0.094 C 
BRANCH  64  65
HETATM   65  C   UNL     1       4.208  -6.875  -6.954  1.00  0.00     0.051 C 
BRANCH  65  66
HETATM   66  C   UNL     1       3.750  -7.084  -8.424  1.00  0.00     0.094 C 
BRANCH  66  67
HETATM   67  C   UNL     1       4.485  -6.222  -9.505  1.00  0.00     0.051 C 
BRANCH  67  68
HETATM   68  C   UNL     1       4.087  -6.335 -11.011  1.00  0.00     0.089 C 
HETATM   69  C   UNL     1       3.809  -4.929 -11.571  1.00  0.00     0.033 C 
BRANCH  68  70
HETATM   70  N   UNL     1       5.055  -6.992 -11.873  1.00  0.00    -0.334 N 
HETATM   71  C   UNL     1       4.878  -7.246 -13.247  1.00  0.00     0.210 A 
HETATM   72  N   UNL     1       5.890  -7.840 -13.748  1.00  0.00    -0.254 NA
HETATM   73  C   UNL     1       6.818  -8.005 -12.695  1.00  0.00     0.150 A 
HETATM   74  C   UNL     1       6.332  -7.496 -11.565  1.00  0.00     0.082 A 
ENDBRANCH  68  70
ENDBRANCH  67  68
ENDBRANCH  66  67
BRANCH  66  75
HETATM   75  N   UNL     1       3.679  -8.507  -8.791  1.00  0.00    -0.345 N 
HETATM   76  C   UNL     1       4.679  -9.413  -8.836  1.00  0.00     0.209 A 
HETATM   77  N   UNL     1       4.241 -10.634  -9.202  1.00  0.00    -0.255 NA
HETATM   78  C   UNL     1       2.915 -10.486  -9.388  1.00  0.00     0.135 A 
HETATM   79  C   UNL     1       2.565  -9.180  -9.132  1.00  0.00     0.111 A 
ENDBRANCH  66  75
ENDBRANCH  65  66
ENDBRANCH  64  65
BRANCH  64  80
HETATM   80  N   UNL     1       5.053  -4.766  -6.009  1.00  0.00    -0.345 N 
HETATM   81  C   UNL     1       5.587  -3.527  -5.960  1.00  0.00     0.209 A 
HETATM   82  N   UNL     1       4.938  -2.727  -5.089  1.00  0.00    -0.255 NA
HETATM   83  C   UNL     1       3.953  -3.491  -4.579  1.00  0.00     0.135 A 
HETATM   84  C   UNL     1       4.014  -4.740  -5.147  1.00  0.00     0.111 A 
ENDBRANCH  64  80
ENDBRANCH  63  64
ENDBRANCH  62  63
BRANCH  62  85
HETATM   85  N   UNL     1       8.463  -7.931  -7.756  1.00  0.00    -0.345 N 
HETATM   86  C   UNL     1       9.585  -8.647  -7.525  1.00  0.00     0.209 A 
HETATM   87  N   UNL     1      10.583  -8.345  -8.377  1.00  0.00    -0.255 NA
HETATM   88  C   UNL     1      10.084  -7.375  -9.159  1.00  0.00     0.135 A 
HETATM   89  C   UNL     1       8.795  -7.099  -8.767  1.00  0.00     0.111 A 
ENDBRANCH  62  85
ENDBRANCH  61  62
ENDBRANCH  60  61
BRANCH  60  90
HETATM   90  N   UNL     1       5.947  -9.348  -3.652  1.00  0.00    -0.343 N 
HETATM   91  C   UNL     1       6.519 -10.135  -2.711  1.00  0.00     0.111 A 
HETATM   92  C   UNL     1       6.305  -9.568  -1.477  1.00  0.00     0.135 A 
HETATM   93  N   UNL     1       5.586  -8.442  -1.627  1.00  0.00    -0.255 NA
HETATM   94  C   UNL     1       5.377  -8.340  -2.953  1.00  0.00     0.209 A 
ENDBRANCH  60  90
ENDBRANCH  59  60
ENDBRANCH  58  59
ENDBRANCH  48  58
ENDBRANCH  42  43
ENDBRANCH  32  42
BRANCH  33  95
HETATM   95  O   UNL     1       2.499 -13.951  -5.439  1.00  0.00    -0.390 OA
HETATM   96  H   UNL     1       3.099 -13.230  -5.756  1.00  0.00     0.210 HD
ENDBRANCH  33  95
BRANCH  34  97
HETATM   97  O   UNL     1       1.025 -16.277  -6.043  1.00  0.00    -0.388 OA
HETATM   98  H   UNL     1       1.085 -15.451  -6.586  1.00  0.00     0.210 HD
ENDBRANCH  34  97
ENDBRANCH  28  29
ENDBRANCH   1  28
BRANCH   3  99
HETATM   99  O   UNL     1      -1.841 -17.000  -2.402  1.00  0.00    -0.390 OA
HETATM  100  H   UNL     1      -2.606 -17.574  -2.670  1.00  0.00     0.210 HD
ENDBRANCH   3  99
BRANCH   4 101
HETATM  101  O   UNL     1       0.100 -15.983  -0.572  1.00  0.00    -0.376 OA
BRANCH 101 102
HETATM  102  C   UNL     1      -0.403 -15.057   0.390  1.00  0.00     0.194 C 
BRANCH 102 103
HETATM  103  C   UNL     1      -0.814 -13.661  -0.243  1.00  0.00     0.116 C 
BRANCH 103 104
HETATM  104  N   UNL     1       0.279 -12.660  -0.145  1.00  0.00    -0.343 N 
HETATM  105  C   UNL     1       1.346 -12.486  -0.955  1.00  0.00     0.111 A 
HETATM  106  C   UNL     1       2.101 -11.444  -0.468  1.00  0.00     0.135 A 
HETATM  107  N   UNL     1       1.532 -10.975   0.655  1.00  0.00    -0.255 NA
HETATM  108  C   UNL     1       0.434 -11.737   0.832  1.00  0.00     0.209 A 
ENDBRANCH 103 104
BRANCH 103 109
HETATM  109  C   UNL     1      -1.398 -13.870  -1.694  1.00  0.00     0.053 C 
BRANCH 109 110
HETATM  110  C   UNL     1      -2.254 -12.804  -2.504  1.00  0.00     0.094 C 
BRANCH 110 111
HETATM  111  C   UNL     1      -1.451 -12.013  -3.624  1.00  0.00     0.051 C 
BRANCH 111 112
HETATM  112  C   UNL     1      -1.275 -10.444  -3.491  1.00  0.00     0.094 C 
BRANCH 112 113
HETATM  113  N   UNL     1      -0.084  -9.935  -4.193  1.00  0.00    -0.345 N 
HETATM  114  C   UNL     1      -0.040  -9.287  -5.373  1.00  0.00     0.111 A 
HETATM  115  C   UNL     1       1.283  -9.068  -5.691  1.00  0.00     0.135 A 
HETATM  116  N   UNL     1       2.065  -9.593  -4.728  1.00  0.00    -0.255 NA
HETATM  117  C   UNL     1       1.206 -10.120  -3.835  1.00  0.00     0.209 A 
ENDBRANCH 112 113
BRANCH 112 118
HETATM  118  C   UNL     1      -1.200  -9.902  -2.011  1.00  0.00     0.051 C 
BRANCH 118 119
HETATM  119  C   UNL     1      -1.707  -8.432  -1.895  1.00  0.00     0.094 C 
BRANCH 119 120
HETATM  120  C   UNL     1      -2.911  -8.177  -0.922  1.00  0.00     0.051 C 
BRANCH 120 121
HETATM  121  C   UNL     1      -3.237  -9.182   0.236  1.00  0.00     0.089 C 
HETATM  122  C   UNL     1      -3.085  -8.472   1.593  1.00  0.00     0.033 C 
BRANCH 121 123
HETATM  123  N   UNL     1      -4.552  -9.801   0.186  1.00  0.00    -0.334 N 
HETATM  124  C   UNL     1      -5.732  -9.452   0.870  1.00  0.00     0.082 A 
HETATM  125  C   UNL     1      -6.656 -10.334   0.492  1.00  0.00     0.150 A 
HETATM  126  N   UNL     1      -6.110 -11.262  -0.423  1.00  0.00    -0.254 NA
HETATM  127  C   UNL     1      -4.887 -10.933  -0.583  1.00  0.00     0.210 A 
ENDBRANCH 121 123
ENDBRANCH 120 121
ENDBRANCH 119 120
BRANCH 119 128
HETATM  128  N   UNL     1      -0.586  -7.513  -1.619  1.00  0.00    -0.345 N 
HETATM  129  C   UNL     1       0.111  -6.764  -2.504  1.00  0.00     0.209 A 
HETATM  130  N   UNL     1       1.058  -6.015  -1.906  1.00  0.00    -0.255 NA
HETATM  131  C   UNL     1       0.945  -6.301  -0.595  1.00  0.00     0.135 A 
HETATM  132  C   UNL     1      -0.067  -7.219  -0.413  1.00  0.00     0.111 A 
ENDBRANCH 119 128
ENDBRANCH 118 119
ENDBRANCH 112 118
ENDBRANCH 111 112
ENDBRANCH 110 111
BRANCH 110 133
HETATM  133  N   UNL     1      -3.605 -13.305  -2.871  1.00  0.00    -0.345 N 
HETATM  134  C   UNL     1      -4.363 -14.253  -2.286  1.00  0.00     0.111 A 
HETATM  135  C   UNL     1      -5.580 -14.304  -2.927  1.00  0.00     0.135 A 
HETATM  136  N   UNL     1      -5.612 -13.361  -3.881  1.00  0.00    -0.255 NA
HETATM  137  C   UNL     1      -4.407 -12.760  -3.809  1.00  0.00     0.209 A 
ENDBRANCH 110 133
ENDBRANCH 109 110
ENDBRANCH 103 109
ENDBRANCH 102 103
ENDBRANCH 101 102
ENDBRANCH   4 101
BRANCH  13 138
HETATM  138  O   UNL     1      -0.050 -18.675   4.140  1.00  0.00    -0.390 OA
HETATM  139  H   UNL     1      -0.789 -18.607   4.800  1.00  0.00     0.210 HD
ENDBRANCH  13 138
BRANCH  17 140
HETATM  140  O   UNL     1      -1.851 -21.018   4.584  1.00  0.00    -0.388 OA
HETATM  141  H   UNL     1      -1.592 -21.571   5.365  1.00  0.00     0.210 HD
ENDBRANCH  17 140
BRANCH  15 142
HETATM  142  O   UNL     1       0.490 -21.383   5.762  1.00  0.00    -0.348 OA
BRANCH 142 143
HETATM  143  C   UNL     1       1.339 -22.260   6.500  1.00  0.00     0.187 C 
HETATM  144  C   UNL     1       2.064 -21.508   7.693  1.00  0.00     0.177 C 
HETATM  145  O   UNL     1       2.387 -22.364   8.801  1.00  0.00    -0.378 OA
HETATM  146  C   UNL     1       2.644 -23.689   8.401  1.00  0.00     0.202 C 
HETATM  147  C   UNL     1       1.343 -24.366   7.919  1.00  0.00     0.173 C 
HETATM  148  C   UNL     1       0.459 -23.367   7.113  1.00  0.00     0.180 C 
BRANCH 144 149
HETATM  149  C   UNL     1       3.330 -20.759   7.241  1.00  0.00     0.215 C 
BRANCH 149 150
HETATM  150  O   UNL     1       4.387 -20.630   8.149  1.00  0.00    -0.303 OA
BRANCH 150 151
HETATM  151  C   UNL     1       5.697 -21.018   8.265  1.00  0.00     0.323 C 
HETATM  152  C   UNL     1       6.190 -22.014   7.248  1.00  0.00     0.147 C 
HETATM  153  O   UNL     1       6.411 -20.034   8.149  1.00  0.00    -0.241 OA
BRANCH 151 154
HETATM  154  O   UNL     1       5.897 -21.602   9.464  1.00  0.00    -0.132 OA
HETATM  155 NA   UNL     1       5.488 -23.555   9.763  1.00  0.00     0.000 Na
ENDBRANCH 151 154
ENDBRANCH 150 151
ENDBRANCH 149 150
ENDBRANCH 144 149
BRANCH 147 156
HETATM  156  O   UNL     1       0.610 -24.956   8.966  1.00  0.00    -0.391 OA
HETATM  157  H   UNL     1       1.042 -25.819   9.201  1.00  0.00     0.210 HD
ENDBRANCH 147 156
BRANCH 148 158
HETATM  158  O   UNL     1      -0.558 -22.793   7.906  1.00  0.00    -0.390 OA
HETATM  159  H   UNL     1      -1.390 -23.322   7.812  1.00  0.00     0.210 HD
ENDBRANCH 148 158
ENDBRANCH 142 143
ENDBRANCH  15 142
TORSDOF 60
ENDMDL
MODEL 7
REMARK VINA RESULT:      -6.0      7.476     14.833
REMARK WARNING: 32 MAX_TORS EXCEEDED!!!
REMARK  60 active torsions:
REMARK  status: ('A' for Active; 'I' for Inactive)
REMARK    1  A    between atoms: C_1  and  O_30 
REMARK    2  A    between atoms: C_3  and  O_9 
REMARK    3  A    between atoms: C_4  and  O_11 
REMARK    4  A    between atoms: O_11  and  C_106 
REMARK    5  A    between atoms: O_14  and  C_18 
REMARK    6  A    between atoms: O_19  and  C_22 
REMARK    7  A    between atoms: O_19  and  C_42 
REMARK    8  A    between atoms: O_21  and  C_24 
REMARK    9  A    between atoms: O_26  and  C_29 
REMARK   10  A    between atoms: C_28  and  C_34 
REMARK   11  A    between atoms: O_30  and  C_33 
REMARK   12  A    between atoms: C_31  and  O_53 
REMARK   13  A    between atoms: O_32  and  C_35 
REMARK   14  A    between atoms: C_34  and  O_59 
REMARK   15  A    between atoms: O_37  and  C_41 
REMARK   16  A    between atoms: C_39  and  C_45 
REMARK   17  A    between atoms: O_40  and  C_45 
REMARK   18  A    between atoms: O_40  and  C_157 
REMARK   19  A    between atoms: O_43  and  C_46 
REMARK   20  A    between atoms: O_48  and  C_52 
REMARK   21  A    between atoms: C_50  and  C_57 
REMARK   22  A    between atoms: O_51  and  C_57 
REMARK   23  A    between atoms: O_51  and  C_135 
REMARK   24  A    between atoms: O_53  and  C_56 
REMARK   25  A    between atoms: O_55  and  C_58 
REMARK   26  A    between atoms: O_55  and  C_60 
REMARK   27  A    between atoms: O_59  and  C_141 
REMARK   28  A    between atoms: C_60  and  C_61 
REMARK   29  A    between atoms: C_61  and  C_62 
REMARK   30  A    between atoms: C_61  and  N_75 
REMARK   31  A    between atoms: C_62  and  C_63 
REMARK   32  A    between atoms: C_63  and  C_64 
REMARK   33  A    between atoms: C_63  and  N_89 
REMARK   34  A    between atoms: C_64  and  C_65 
REMARK   35  A    between atoms: C_65  and  C_66 
REMARK   36  A    between atoms: C_65  and  N_79 
REMARK   37  A    between atoms: C_66  and  C_67 
REMARK   38  A    between atoms: C_67  and  C_68 
REMARK   39  A    between atoms: C_67  and  N_94 
REMARK   40  A    between atoms: C_68  and  C_69 
REMARK   41  A    between atoms: C_69  and  N_84 
REMARK   42  A    between atoms: N_101  and  C_107 
REMARK   43  A    between atoms: C_106  and  C_107 
REMARK   44  A    between atoms: C_107  and  C_114 
REMARK   45  A    between atoms: N_110  and  C_116 
REMARK   46  A    between atoms: C_112  and  C_116 
REMARK   47  A    between atoms: C_112  and  C_118 
REMARK   48  A    between atoms: N_113  and  C_123 
REMARK   49  A    between atoms: C_114  and  C_118 
REMARK   50  A    between atoms: C_116  and  C_120 
REMARK   51  A    between atoms: N_117  and  C_118 
REMARK   52  A    between atoms: C_120  and  C_125 
REMARK   53  A    between atoms: C_123  and  C_124 
REMARK   54  A    between atoms: C_124  and  C_125 
REMARK   55  A    between atoms: C_125  and  N_128 
REMARK   56  A    between atoms: C_135  and  C_136 
REMARK   57  A    between atoms: C_136  and  O_138 
REMARK   58  A    between atoms: C_141  and  C_142 
REMARK   59  A    between atoms: C_142  and  O_143 
REMARK   60  A    between atoms: C_157  and  O_158 
ROOT
HETATM    1  C   UNL     1      20.182  -8.761  25.191  1.00  0.00     0.187 C 
HETATM    2  C   UNL     1      20.808  -8.398  23.784  1.00  0.00     0.180 C 
HETATM    3  C   UNL     1      19.456  -7.565  25.892  1.00  0.00     0.183 C 
HETATM    4  C   UNL     1      18.736  -6.617  24.881  1.00  0.00     0.208 C 
HETATM    5  C   UNL     1      19.895  -6.232  23.916  1.00  0.00     0.292 C 
HETATM    6  C   UNL     1      22.353  -8.154  23.803  1.00  0.00     0.203 C 
HETATM    7  O   UNL     1      23.014  -7.939  22.554  1.00  0.00    -0.370 OA
HETATM    8  O   UNL     1      20.125  -7.352  23.082  1.00  0.00    -0.348 OA
HETATM    9  O   UNL     1      19.652  -5.042  23.148  1.00  0.00    -0.348 OA
HETATM   10  O   UNL     1      21.494  -2.271  21.770  1.00  0.00    -0.348 OA
HETATM   11  C   UNL     1      21.480  -3.649  22.132  1.00  0.00     0.180 C 
HETATM   12  O   UNL     1      23.693  -3.778  21.133  1.00  0.00    -0.304 OA
HETATM   13  C   UNL     1      19.944  -2.701  23.944  1.00  0.00     0.183 C 
HETATM   14  C   UNL     1      20.613  -3.980  23.392  1.00  0.00     0.187 C 
HETATM   15  C   UNL     1      21.772  -1.320  22.792  1.00  0.00     0.292 C 
HETATM   16  C   UNL     1      22.928  -4.169  22.226  1.00  0.00     0.215 C 
HETATM   17  C   UNL     1      21.082  -1.668  24.142  1.00  0.00     0.204 C 
HETATM   18 NA   UNL     1      20.315  -8.294  18.940  1.00  0.00     0.050 Na
HETATM   19  C   UNL     1      22.173  -8.097  21.435  1.00  0.00     0.261 C 
HETATM   20  C   UNL     1      22.846  -8.832  20.320  1.00  0.00     0.310 C 
HETATM   21  O   UNL     1      22.179  -9.033  19.167  1.00  0.00    -0.185 OA
HETATM   22  O   UNL     1      23.989  -9.243  20.436  1.00  0.00    -0.261 OA
HETATM   23 NA   UNL     1      21.892  -5.787  18.058  1.00  0.00     0.051 Na
HETATM   24  C   UNL     1      22.758  -3.189  19.056  1.00  0.00     0.146 C 
HETATM   25  C   UNL     1      23.575  -4.181  19.836  1.00  0.00     0.314 C 
HETATM   26  O   UNL     1      22.952  -5.368  19.719  1.00  0.00    -0.172 OA
HETATM   27  O   UNL     1      24.673  -4.202  19.305  1.00  0.00    -0.242 OA
ENDROOT
BRANCH   1  28
HETATM   28  O   UNL     1      19.285  -9.856  25.044  1.00  0.00    -0.348 OA
BRANCH  28  29
HETATM   29  C   UNL     1      19.547 -10.666  23.887  1.00  0.00     0.292 C 
HETATM   30  O   UNL     1      18.495 -10.479  22.946  1.00  0.00    -0.348 OA
HETATM   31  C   UNL     1      18.603 -11.272  21.749  1.00  0.00     0.180 C 
HETATM   32  C   UNL     1      19.147 -12.722  21.969  1.00  0.00     0.187 C 
HETATM   33  C   UNL     1      18.937 -13.131  23.426  1.00  0.00     0.183 C 
HETATM   34  C   UNL     1      19.713 -12.152  24.328  1.00  0.00     0.204 C 
BRANCH  31  35
HETATM   35  C   UNL     1      19.387 -10.544  20.623  1.00  0.00     0.203 C 
BRANCH  35  36
HETATM   36  O   UNL     1      18.876  -9.272  20.289  1.00  0.00    -0.370 OA
BRANCH  36  37
HETATM   37  C   UNL     1      17.772  -9.400  19.437  1.00  0.00     0.262 C 
BRANCH  37  38
HETATM   38  C   UNL     1      17.076  -8.081  19.359  1.00  0.00     0.321 C 
HETATM   39  O   UNL     1      16.677  -7.659  18.284  1.00  0.00    -0.260 OA
BRANCH  38  40
HETATM   40  O   UNL     1      16.862  -7.367  20.478  1.00  0.00    -0.147 OA
HETATM   41 NA   UNL     1      17.976  -7.713  22.117  1.00  0.00     0.000 Na
ENDBRANCH  38  40
ENDBRANCH  37  38
ENDBRANCH  36  37
ENDBRANCH  35  36
ENDBRANCH  31  35
BRANCH  32  42
HETATM   42  O   UNL     1      18.424 -13.652  21.171  1.00  0.00    -0.348 OA
BRANCH  42  43
HETATM   43  C   UNL     1      17.726 -13.102  20.074  1.00  0.00     0.292 C 
HETATM   44  O   UNL     1      16.363 -13.526  20.164  1.00  0.00    -0.351 OA
HETATM   45  C   UNL     1      15.834 -14.128  18.995  1.00  0.00     0.151 C 
HETATM   46  C   UNL     1      16.104 -13.253  17.749  1.00  0.00     0.068 C 
HETATM   47  C   UNL     1      17.611 -12.916  17.581  1.00  0.00     0.154 C 
HETATM   48  C   UNL     1      18.475 -13.463  18.738  1.00  0.00     0.205 C 
BRANCH  45  49
HETATM   49  C   UNL     1      14.311 -14.306  19.178  1.00  0.00     0.200 C 
BRANCH  49  50
HETATM   50  O   UNL     1      13.669 -14.791  18.013  1.00  0.00    -0.379 OA
BRANCH  50  51
HETATM   51  C   UNL     1      12.698 -13.892  17.513  1.00  0.00     0.281 C 
BRANCH  51  52
HETATM   52  C   UNL     1      12.951 -13.637  16.053  1.00  0.00     0.313 C 
HETATM   53  O   UNL     1      13.134 -12.503  15.638  1.00  0.00    -0.260 OA
BRANCH  52  54
HETATM   54  O   UNL     1      12.974 -14.667  15.187  1.00  0.00    -0.148 OA
HETATM   55 NA   UNL     1      14.107 -14.594  13.526  1.00  0.00     0.000 Na
ENDBRANCH  52  54
ENDBRANCH  51  52
ENDBRANCH  50  51
ENDBRANCH  49  50
ENDBRANCH  45  49
BRANCH  47  56
HETATM   56  O   UNL     1      18.105 -13.328  16.330  1.00  0.00    -0.393 OA
HETATM   57  H   UNL     1      19.014 -12.940  16.220  1.00  0.00     0.210 HD
ENDBRANCH  47  56
BRANCH  48  58
HETATM   58  O   UNL     1      18.657 -14.856  18.520  1.00  0.00    -0.376 OA
BRANCH  58  59
HETATM   59  C   UNL     1      19.990 -15.319  18.673  1.00  0.00     0.194 C 
BRANCH  59  60
HETATM   60  C   UNL     1      20.786 -15.444  17.335  1.00  0.00     0.116 C 
BRANCH  60  61
HETATM   61  C   UNL     1      20.350 -16.731  16.546  1.00  0.00     0.053 C 
BRANCH  61  62
HETATM   62  C   UNL     1      19.662 -16.612  15.133  1.00  0.00     0.094 C 
BRANCH  62  63
HETATM   63  C   UNL     1      20.233 -17.698  14.134  1.00  0.00     0.051 C 
BRANCH  63  64
HETATM   64  C   UNL     1      19.624 -19.141  14.115  1.00  0.00     0.094 C 
BRANCH  64  65
HETATM   65  C   UNL     1      18.989 -19.514  12.727  1.00  0.00     0.051 C 
BRANCH  65  66
HETATM   66  C   UNL     1      17.516 -19.989  12.869  1.00  0.00     0.094 C 
BRANCH  66  67
HETATM   67  C   UNL     1      16.930 -19.993  14.321  1.00  0.00     0.051 C 
BRANCH  67  68
HETATM   68  C   UNL     1      16.510 -21.335  15.001  1.00  0.00     0.089 C 
HETATM   69  C   UNL     1      17.716 -22.290  15.029  1.00  0.00     0.033 C 
BRANCH  68  70
HETATM   70  N   UNL     1      15.979 -21.221  16.349  1.00  0.00    -0.334 N 
HETATM   71  C   UNL     1      15.385 -20.066  16.892  1.00  0.00     0.210 A 
HETATM   72  N   UNL     1      15.012 -20.253  18.099  1.00  0.00    -0.254 NA
HETATM   73  C   UNL     1      15.347 -21.589  18.417  1.00  0.00     0.150 A 
HETATM   74  C   UNL     1      15.923 -22.184  17.374  1.00  0.00     0.082 A 
ENDBRANCH  68  70
ENDBRANCH  67  68
ENDBRANCH  66  67
BRANCH  66  75
HETATM   75  N   UNL     1      16.621 -19.337  11.901  1.00  0.00    -0.345 N 
HETATM   76  C   UNL     1      15.989 -18.149  12.012  1.00  0.00     0.209 A 
HETATM   77  N   UNL     1      15.258 -17.859  10.917  1.00  0.00    -0.255 NA
HETATM   78  C   UNL     1      15.445 -18.905  10.088  1.00  0.00     0.135 A 
HETATM   79  C   UNL     1      16.286 -19.814  10.689  1.00  0.00     0.111 A 
ENDBRANCH  66  75
ENDBRANCH  65  66
ENDBRANCH  64  65
BRANCH  64  80
HETATM   80  N   UNL     1      20.649 -20.159  14.424  1.00  0.00    -0.345 N 
HETATM   81  C   UNL     1      21.156 -21.121  13.625  1.00  0.00     0.209 A 
HETATM   82  N   UNL     1      22.111 -21.847  14.243  1.00  0.00    -0.255 NA
HETATM   83  C   UNL     1      22.215 -21.312  15.474  1.00  0.00     0.135 A 
HETATM   84  C   UNL     1      21.327 -20.270  15.587  1.00  0.00     0.111 A 
ENDBRANCH  64  80
ENDBRANCH  63  64
ENDBRANCH  62  63
BRANCH  62  85
HETATM   85  N   UNL     1      18.191 -16.445  15.207  1.00  0.00    -0.345 N 
HETATM   86  C   UNL     1      17.445 -15.673  14.388  1.00  0.00     0.209 A 
HETATM   87  N   UNL     1      16.145 -15.641  14.738  1.00  0.00    -0.255 NA
HETATM   88  C   UNL     1      16.070 -16.399  15.845  1.00  0.00     0.135 A 
HETATM   89  C   UNL     1      17.325 -16.872  16.151  1.00  0.00     0.111 A 
ENDBRANCH  62  85
ENDBRANCH  61  62
ENDBRANCH  60  61
BRANCH  60  90
HETATM   90  N   UNL     1      22.250 -15.285  17.509  1.00  0.00    -0.343 N 
HETATM   91  C   UNL     1      22.947 -14.258  18.048  1.00  0.00     0.111 A 
HETATM   92  C   UNL     1      24.288 -14.557  17.985  1.00  0.00     0.135 A 
HETATM   93  N   UNL     1      24.446 -15.753  17.393  1.00  0.00    -0.255 NA
HETATM   94  C   UNL     1      23.196 -16.166  17.108  1.00  0.00     0.209 A 
ENDBRANCH  60  90
ENDBRANCH  59  60
ENDBRANCH  58  59
ENDBRANCH  48  58
ENDBRANCH  42  43
ENDBRANCH  32  42
BRANCH  33  95
HETATM   95  O   UNL     1      17.563 -13.197  23.739  1.00  0.00    -0.390 OA
HETATM   96  H   UNL     1      17.430 -12.998  24.700  1.00  0.00     0.210 HD
ENDBRANCH  33  95
BRANCH  34  97
HETATM   97  O   UNL     1      19.429 -12.379  25.686  1.00  0.00    -0.388 OA
HETATM   98  H   UNL     1      18.836 -11.649  25.999  1.00  0.00     0.210 HD
ENDBRANCH  34  97
ENDBRANCH  28  29
ENDBRANCH   1  28
BRANCH   3  99
HETATM   99  O   UNL     1      18.578  -8.030  26.884  1.00  0.00    -0.390 OA
HETATM  100  H   UNL     1      18.230  -8.907  26.574  1.00  0.00     0.210 HD
ENDBRANCH   3  99
BRANCH   4 101
HETATM  101  O   UNL     1      17.608  -7.302  24.299  1.00  0.00    -0.376 OA
BRANCH 101 102
HETATM  102  C   UNL     1      16.332  -6.784  24.669  1.00  0.00     0.194 C 
BRANCH 102 103
HETATM  103  C   UNL     1      15.815  -7.332  26.065  1.00  0.00     0.116 C 
BRANCH 103 104
HETATM  104  N   UNL     1      15.049  -6.306  26.818  1.00  0.00    -0.343 N 
HETATM  105  C   UNL     1      13.713  -6.204  26.995  1.00  0.00     0.111 A 
HETATM  106  C   UNL     1      13.454  -5.085  27.753  1.00  0.00     0.135 A 
HETATM  107  N   UNL     1      14.614  -4.468  28.035  1.00  0.00    -0.255 NA
HETATM  108  C   UNL     1      15.562  -5.224  27.448  1.00  0.00     0.209 A 
ENDBRANCH 103 104
BRANCH 103 109
HETATM  109  C   UNL     1      15.072  -8.710  25.871  1.00  0.00     0.053 C 
BRANCH 109 110
HETATM  110  C   UNL     1      14.990  -9.872  26.951  1.00  0.00     0.094 C 
BRANCH 110 111
HETATM  111  C   UNL     1      15.396 -11.312  26.416  1.00  0.00     0.051 C 
BRANCH 111 112
HETATM  112  C   UNL     1      15.231 -12.568  27.367  1.00  0.00     0.094 C 
BRANCH 112 113
HETATM  113  N   UNL     1      15.449 -13.850  26.673  1.00  0.00    -0.345 N 
HETATM  114  C   UNL     1      16.521 -14.661  26.762  1.00  0.00     0.111 A 
HETATM  115  C   UNL     1      16.338 -15.707  25.883  1.00  0.00     0.135 A 
HETATM  116  N   UNL     1      15.171 -15.544  25.233  1.00  0.00    -0.255 NA
HETATM  117  C   UNL     1      14.657 -14.402  25.728  1.00  0.00     0.209 A 
ENDBRANCH 112 113
BRANCH 112 118
HETATM  118  C   UNL     1      13.838 -12.676  28.098  1.00  0.00     0.051 C 
BRANCH 118 119
HETATM  119  C   UNL     1      13.987 -13.108  29.589  1.00  0.00     0.094 C 
BRANCH 119 120
HETATM  120  C   UNL     1      13.568 -12.053  30.674  1.00  0.00     0.051 C 
BRANCH 120 121
HETATM  121  C   UNL     1      14.287 -12.002  32.066  1.00  0.00     0.089 C 
HETATM  122  C   UNL     1      15.784 -12.314  31.886  1.00  0.00     0.033 C 
BRANCH 121 123
HETATM  123  N   UNL     1      14.163 -10.752  32.797  1.00  0.00    -0.334 N 
HETATM  124  C   UNL     1      15.010 -10.199  33.775  1.00  0.00     0.082 A 
HETATM  125  C   UNL     1      14.452  -9.047  34.145  1.00  0.00     0.150 A 
HETATM  126  N   UNL     1      13.250  -8.830  33.434  1.00  0.00    -0.254 NA
HETATM  127  C   UNL     1      13.102  -9.834  32.661  1.00  0.00     0.210 A 
ENDBRANCH 121 123
ENDBRANCH 120 121
ENDBRANCH 119 120
BRANCH 119 128
HETATM  128  N   UNL     1      13.334 -14.411  29.823  1.00  0.00    -0.345 N 
HETATM  129  C   UNL     1      13.832 -15.644  29.577  1.00  0.00     0.209 A 
HETATM  130  N   UNL     1      12.975 -16.622  29.934  1.00  0.00    -0.255 NA
HETATM  131  C   UNL     1      11.902 -15.974  30.428  1.00  0.00     0.135 A 
HETATM  132  C   UNL     1      12.120 -14.615  30.366  1.00  0.00     0.111 A 
ENDBRANCH 119 128
ENDBRANCH 118 119
ENDBRANCH 112 118
ENDBRANCH 111 112
ENDBRANCH 110 111
BRANCH 110 133
HETATM  133  N   UNL     1      15.529  -9.469  28.277  1.00  0.00    -0.345 N 
HETATM  134  C   UNL     1      14.923  -8.833  29.298  1.00  0.00     0.111 A 
HETATM  135  C   UNL     1      15.800  -8.763  30.357  1.00  0.00     0.135 A 
HETATM  136  N   UNL     1      16.937  -9.393  30.027  1.00  0.00    -0.255 NA
HETATM  137  C   UNL     1      16.734  -9.827  28.766  1.00  0.00     0.209 A 
ENDBRANCH 110 133
ENDBRANCH 109 110
ENDBRANCH 103 109
ENDBRANCH 102 103
ENDBRANCH 101 102
ENDBRANCH   4 101
BRANCH  13 138
HETATM  138  O   UNL     1      18.978  -2.198  23.057  1.00  0.00    -0.390 OA
HETATM  139  H   UNL     1      19.025  -2.760  22.241  1.00  0.00     0.210 HD
ENDBRANCH  13 138
BRANCH  17 140
HETATM  140  O   UNL     1      20.680  -0.521  24.850  1.00  0.00    -0.388 OA
HETATM  141  H   UNL     1      20.204  -0.819  25.666  1.00  0.00     0.210 HD
ENDBRANCH  17 140
BRANCH  15 142
HETATM  142  O   UNL     1      21.263  -0.085  22.306  1.00  0.00    -0.348 OA
BRANCH 142 143
HETATM  143  C   UNL     1      22.249   0.810  21.794  1.00  0.00     0.187 C 
HETATM  144  C   UNL     1      21.610   2.182  21.324  1.00  0.00     0.177 C 
HETATM  145  O   UNL     1      22.512   3.298  21.410  1.00  0.00    -0.378 OA
HETATM  146  C   UNL     1      23.854   2.920  21.218  1.00  0.00     0.202 C 
HETATM  147  C   UNL     1      24.354   2.086  22.418  1.00  0.00     0.173 C 
HETATM  148  C   UNL     1      23.242   1.123  22.931  1.00  0.00     0.180 C 
BRANCH 144 149
HETATM  149  C   UNL     1      21.023   2.109  19.903  1.00  0.00     0.215 C 
BRANCH 149 150
HETATM  150  O   UNL     1      20.576   3.293  19.305  1.00  0.00    -0.303 OA
BRANCH 150 151
HETATM  151  C   UNL     1      19.568   4.210  19.465  1.00  0.00     0.323 C 
HETATM  152  C   UNL     1      18.386   3.764  20.285  1.00  0.00     0.147 C 
HETATM  153  O   UNL     1      20.019   5.195  20.027  1.00  0.00    -0.241 OA
BRANCH 151 154
HETATM  154  O   UNL     1      19.063   4.547  18.262  1.00  0.00    -0.132 OA
HETATM  155 NA   UNL     1      20.173   5.529  16.892  1.00  0.00     0.000 Na
ENDBRANCH 151 154
ENDBRANCH 150 151
ENDBRANCH 149 150
ENDBRANCH 144 149
BRANCH 147 156
HETATM  156  O   UNL     1      24.857   2.879  23.466  1.00  0.00    -0.391 OA
HETATM  157  H   UNL     1      25.597   2.383  23.905  1.00  0.00     0.210 HD
ENDBRANCH 147 156
BRANCH 148 158
HETATM  158  O   UNL     1      22.551   1.649  24.045  1.00  0.00    -0.390 OA
HETATM  159  H   UNL     1      21.746   1.101  24.224  1.00  0.00     0.210 HD
ENDBRANCH 148 158
ENDBRANCH 142 143
ENDBRANCH  15 142
TORSDOF 60
ENDMDL
MODEL 8
REMARK VINA RESULT:      -6.0     16.511     24.954
REMARK WARNING: 32 MAX_TORS EXCEEDED!!!
REMARK  60 active torsions:
REMARK  status: ('A' for Active; 'I' for Inactive)
REMARK    1  A    between atoms: C_1  and  O_30 
REMARK    2  A    between atoms: C_3  and  O_9 
REMARK    3  A    between atoms: C_4  and  O_11 
REMARK    4  A    between atoms: O_11  and  C_106 
REMARK    5  A    between atoms: O_14  and  C_18 
REMARK    6  A    between atoms: O_19  and  C_22 
REMARK    7  A    between atoms: O_19  and  C_42 
REMARK    8  A    between atoms: O_21  and  C_24 
REMARK    9  A    between atoms: O_26  and  C_29 
REMARK   10  A    between atoms: C_28  and  C_34 
REMARK   11  A    between atoms: O_30  and  C_33 
REMARK   12  A    between atoms: C_31  and  O_53 
REMARK   13  A    between atoms: O_32  and  C_35 
REMARK   14  A    between atoms: C_34  and  O_59 
REMARK   15  A    between atoms: O_37  and  C_41 
REMARK   16  A    between atoms: C_39  and  C_45 
REMARK   17  A    between atoms: O_40  and  C_45 
REMARK   18  A    between atoms: O_40  and  C_157 
REMARK   19  A    between atoms: O_43  and  C_46 
REMARK   20  A    between atoms: O_48  and  C_52 
REMARK   21  A    between atoms: C_50  and  C_57 
REMARK   22  A    between atoms: O_51  and  C_57 
REMARK   23  A    between atoms: O_51  and  C_135 
REMARK   24  A    between atoms: O_53  and  C_56 
REMARK   25  A    between atoms: O_55  and  C_58 
REMARK   26  A    between atoms: O_55  and  C_60 
REMARK   27  A    between atoms: O_59  and  C_141 
REMARK   28  A    between atoms: C_60  and  C_61 
REMARK   29  A    between atoms: C_61  and  C_62 
REMARK   30  A    between atoms: C_61  and  N_75 
REMARK   31  A    between atoms: C_62  and  C_63 
REMARK   32  A    between atoms: C_63  and  C_64 
REMARK   33  A    between atoms: C_63  and  N_89 
REMARK   34  A    between atoms: C_64  and  C_65 
REMARK   35  A    between atoms: C_65  and  C_66 
REMARK   36  A    between atoms: C_65  and  N_79 
REMARK   37  A    between atoms: C_66  and  C_67 
REMARK   38  A    between atoms: C_67  and  C_68 
REMARK   39  A    between atoms: C_67  and  N_94 
REMARK   40  A    between atoms: C_68  and  C_69 
REMARK   41  A    between atoms: C_69  and  N_84 
REMARK   42  A    between atoms: N_101  and  C_107 
REMARK   43  A    between atoms: C_106  and  C_107 
REMARK   44  A    between atoms: C_107  and  C_114 
REMARK   45  A    between atoms: N_110  and  C_116 
REMARK   46  A    between atoms: C_112  and  C_116 
REMARK   47  A    between atoms: C_112  and  C_118 
REMARK   48  A    between atoms: N_113  and  C_123 
REMARK   49  A    between atoms: C_114  and  C_118 
REMARK   50  A    between atoms: C_116  and  C_120 
REMARK   51  A    between atoms: N_117  and  C_118 
REMARK   52  A    between atoms: C_120  and  C_125 
REMARK   53  A    between atoms: C_123  and  C_124 
REMARK   54  A    between atoms: C_124  and  C_125 
REMARK   55  A    between atoms: C_125  and  N_128 
REMARK   56  A    between atoms: C_135  and  C_136 
REMARK   57  A    between atoms: C_136  and  O_138 
REMARK   58  A    between atoms: C_141  and  C_142 
REMARK   59  A    between atoms: C_142  and  O_143 
REMARK   60  A    between atoms: C_157  and  O_158 
ROOT
HETATM    1  C   UNL     1       0.701 -16.541  -1.807  1.00  0.00     0.187 C 
HETATM    2  C   UNL     1       2.242 -16.193  -1.888  1.00  0.00     0.180 C 
HETATM    3  C   UNL     1       0.403 -18.041  -1.478  1.00  0.00     0.183 C 
HETATM    4  C   UNL     1       1.448 -18.665  -0.499  1.00  0.00     0.208 C 
HETATM    5  C   UNL     1       2.790 -18.388  -1.239  1.00  0.00     0.292 C 
HETATM    6  C   UNL     1       2.808 -16.080  -3.341  1.00  0.00     0.203 C 
HETATM    7  O   UNL     1       4.163 -15.652  -3.503  1.00  0.00    -0.370 OA
HETATM    8  O   UNL     1       3.080 -17.015  -1.065  1.00  0.00    -0.348 OA
HETATM    9  O   UNL     1       3.882 -19.218  -0.810  1.00  0.00    -0.348 OA
HETATM   10  O   UNL     1       6.821 -20.777  -2.190  1.00  0.00    -0.348 OA
HETATM   11  C   UNL     1       5.911 -19.681  -2.218  1.00  0.00     0.180 C 
HETATM   12  O   UNL     1       7.383 -18.698  -3.885  1.00  0.00    -0.304 OA
HETATM   13  C   UNL     1       4.316 -21.560  -1.535  1.00  0.00     0.183 C 
HETATM   14  C   UNL     1       4.434 -20.054  -1.862  1.00  0.00     0.187 C 
HETATM   15  C   UNL     1       6.455 -21.960  -2.892  1.00  0.00     0.292 C 
HETATM   16  C   UNL     1       6.053 -18.932  -3.557  1.00  0.00     0.215 C 
HETATM   17  C   UNL     1       4.949 -22.313  -2.733  1.00  0.00     0.204 C 
HETATM   18 NA   UNL     1       6.234 -14.548   0.366  1.00  0.00     0.050 Na
HETATM   19  C   UNL     1       4.782 -15.268  -2.297  1.00  0.00     0.261 C 
HETATM   20  C   UNL     1       5.614 -14.035  -2.454  1.00  0.00     0.310 C 
HETATM   21  O   UNL     1       6.296 -13.562  -1.394  1.00  0.00    -0.185 OA
HETATM   22  O   UNL     1       5.689 -13.459  -3.527  1.00  0.00    -0.261 OA
HETATM   23 NA   UNL     1       8.556 -16.118  -0.936  1.00  0.00     0.051 Na
HETATM   24  C   UNL     1       9.108 -18.641  -2.286  1.00  0.00     0.146 C 
HETATM   25  C   UNL     1       8.269 -17.868  -3.265  1.00  0.00     0.314 C 
HETATM   26  O   UNL     1       7.660 -16.894  -2.564  1.00  0.00    -0.172 OA
HETATM   27  O   UNL     1       9.048 -17.405  -4.082  1.00  0.00    -0.242 OA
ENDROOT
BRANCH   1  28
HETATM   28  O   UNL     1       0.072 -15.698  -0.848  1.00  0.00    -0.348 OA
BRANCH  28  29
HETATM   29  C   UNL     1       0.082 -14.306  -1.207  1.00  0.00     0.292 C 
HETATM   30  O   UNL     1       1.002 -13.620  -0.365  1.00  0.00    -0.348 OA
HETATM   31  C   UNL     1       1.079 -12.199  -0.581  1.00  0.00     0.180 C 
HETATM   32  C   UNL     1      -0.288 -11.508  -0.900  1.00  0.00     0.187 C 
HETATM   33  C   UNL     1      -1.433 -12.383  -0.393  1.00  0.00     0.183 C 
HETATM   34  C   UNL     1      -1.369 -13.743  -1.114  1.00  0.00     0.204 C 
BRANCH  31  35
HETATM   35  C   UNL     1       2.158 -11.816  -1.631  1.00  0.00     0.203 C 
BRANCH  35  36
HETATM   36  O   UNL     1       3.469 -11.743  -1.115  1.00  0.00    -0.370 OA
BRANCH  36  37
HETATM   37  C   UNL     1       4.158 -10.667  -1.687  1.00  0.00     0.262 C 
BRANCH  37  38
HETATM   38  C   UNL     1       3.756  -9.414  -0.980  1.00  0.00     0.321 C 
HETATM   39  O   UNL     1       3.633  -8.370  -1.601  1.00  0.00    -0.260 OA
BRANCH  38  40
HETATM   40  O   UNL     1       3.500  -9.440   0.340  1.00  0.00    -0.147 OA
HETATM   41 NA   UNL     1       1.962  -8.380   1.085  1.00  0.00     0.000 Na
ENDBRANCH  38  40
ENDBRANCH  37  38
ENDBRANCH  36  37
ENDBRANCH  35  36
ENDBRANCH  31  35
BRANCH  32  42
HETATM   42  O   UNL     1      -0.388 -10.262  -0.220  1.00  0.00    -0.348 OA
BRANCH  42  43
HETATM   43  C   UNL     1      -0.687  -9.146  -1.031  1.00  0.00     0.292 C 
HETATM   44  O   UNL     1       0.376  -8.201  -0.887  1.00  0.00    -0.351 OA
HETATM   45  C   UNL     1      -0.022  -6.882  -0.553  1.00  0.00     0.151 C 
HETATM   46  C   UNL     1      -1.137  -6.384  -1.502  1.00  0.00     0.068 C 
HETATM   47  C   UNL     1      -2.353  -7.350  -1.543  1.00  0.00     0.154 C 
HETATM   48  C   UNL     1      -2.131  -8.620  -0.692  1.00  0.00     0.205 C 
BRANCH  45  49
HETATM   49  C   UNL     1       1.205  -5.952  -0.669  1.00  0.00     0.200 C 
BRANCH  49  50
HETATM   50  O   UNL     1       1.828  -5.704   0.578  1.00  0.00    -0.379 OA
BRANCH  50  51
HETATM   51  C   UNL     1       1.483  -4.443   1.118  1.00  0.00     0.281 C 
BRANCH  51  52
HETATM   52  C   UNL     1       2.539  -3.435   0.760  1.00  0.00     0.313 C 
HETATM   53  O   UNL     1       3.709  -3.623   1.056  1.00  0.00    -0.260 OA
BRANCH  52  54
HETATM   54  O   UNL     1       2.197  -2.307   0.110  1.00  0.00    -0.148 OA
HETATM   55 NA   UNL     1       1.527  -0.698   1.116  1.00  0.00     0.000 Na
ENDBRANCH  52  54
ENDBRANCH  51  52
ENDBRANCH  50  51
ENDBRANCH  49  50
ENDBRANCH  45  49
BRANCH  47  56
HETATM   56  O   UNL     1      -3.552  -6.701  -1.196  1.00  0.00    -0.393 OA
HETATM   57  H   UNL     1      -3.625  -6.711  -0.204  1.00  0.00     0.210 HD
ENDBRANCH  47  56
BRANCH  48  58
HETATM   58  O   UNL     1      -2.327  -8.266   0.670  1.00  0.00    -0.376 OA
BRANCH  58  59
HETATM   59  C   UNL     1      -3.288  -9.050   1.362  1.00  0.00     0.194 C 
BRANCH  59  60
HETATM   60  C   UNL     1      -4.511  -8.242   1.900  1.00  0.00     0.116 C 
BRANCH  60  61
HETATM   61  C   UNL     1      -4.551  -8.274   3.471  1.00  0.00     0.053 C 
BRANCH  61  62
HETATM   62  C   UNL     1      -5.416  -7.229   4.273  1.00  0.00     0.094 C 
BRANCH  62  63
HETATM   63  C   UNL     1      -5.461  -5.838   3.520  1.00  0.00     0.051 C 
BRANCH  63  64
HETATM   64  C   UNL     1      -5.417  -4.503   4.338  1.00  0.00     0.094 C 
BRANCH  64  65
HETATM   65  C   UNL     1      -5.750  -3.242   3.462  1.00  0.00     0.051 C 
BRANCH  65  66
HETATM   66  C   UNL     1      -5.226  -1.929   4.107  1.00  0.00     0.094 C 
BRANCH  66  67
HETATM   67  C   UNL     1      -4.528  -0.916   3.140  1.00  0.00     0.051 C 
BRANCH  67  68
HETATM   68  C   UNL     1      -3.767   0.324   3.708  1.00  0.00     0.089 C 
HETATM   69  C   UNL     1      -2.670   0.746   2.715  1.00  0.00     0.033 C 
BRANCH  68  70
HETATM   70  N   UNL     1      -4.587   1.485   4.011  1.00  0.00    -0.334 N 
HETATM   71  C   UNL     1      -4.592   2.176   5.238  1.00  0.00     0.210 A 
HETATM   72  N   UNL     1      -5.413   3.153   5.221  1.00  0.00    -0.254 NA
HETATM   73  C   UNL     1      -6.003   3.158   3.937  1.00  0.00     0.150 A 
HETATM   74  C   UNL     1      -5.513   2.165   3.198  1.00  0.00     0.082 A 
ENDBRANCH  68  70
ENDBRANCH  67  68
ENDBRANCH  66  67
BRANCH  66  75
HETATM   75  N   UNL     1      -6.234  -1.287   4.966  1.00  0.00    -0.345 N 
HETATM   76  C   UNL     1      -6.175  -1.050   6.294  1.00  0.00     0.209 A 
HETATM   77  N   UNL     1      -7.281  -0.425   6.747  1.00  0.00    -0.255 NA
HETATM   78  C   UNL     1      -8.058  -0.262   5.657  1.00  0.00     0.135 A 
HETATM   79  C   UNL     1      -7.415  -0.787   4.560  1.00  0.00     0.111 A 
ENDBRANCH  66  75
ENDBRANCH  65  66
ENDBRANCH  64  65
BRANCH  64  80
HETATM   80  N   UNL     1      -6.376  -4.532   5.461  1.00  0.00    -0.345 N 
HETATM   81  C   UNL     1      -7.723  -4.462   5.427  1.00  0.00     0.209 A 
HETATM   82  N   UNL     1      -8.271  -4.558   6.656  1.00  0.00    -0.255 NA
HETATM   83  C   UNL     1      -7.226  -4.706   7.494  1.00  0.00     0.135 A 
HETATM   84  C   UNL     1      -6.062  -4.699   6.764  1.00  0.00     0.111 A 
ENDBRANCH  64  80
ENDBRANCH  63  64
ENDBRANCH  62  63
BRANCH  62  85
HETATM   85  N   UNL     1      -6.693  -7.785   4.778  1.00  0.00    -0.345 N 
HETATM   86  C   UNL     1      -7.844  -7.874   4.077  1.00  0.00     0.209 A 
HETATM   87  N   UNL     1      -8.870  -8.344   4.812  1.00  0.00    -0.255 NA
HETATM   88  C   UNL     1      -8.355  -8.532   6.038  1.00  0.00     0.135 A 
HETATM   89  C   UNL     1      -7.029  -8.167   6.029  1.00  0.00     0.111 A 
ENDBRANCH  62  85
ENDBRANCH  61  62
ENDBRANCH  60  61
BRANCH  60  90
HETATM   90  N   UNL     1      -5.787  -8.603   1.237  1.00  0.00    -0.343 N 
HETATM   91  C   UNL     1      -6.429  -9.793   1.194  1.00  0.00     0.111 A 
HETATM   92  C   UNL     1      -7.578  -9.645   0.452  1.00  0.00     0.135 A 
HETATM   93  N   UNL     1      -7.657  -8.379   0.009  1.00  0.00    -0.255 NA
HETATM   94  C   UNL     1      -6.555  -7.774   0.493  1.00  0.00     0.209 A 
ENDBRANCH  60  90
ENDBRANCH  59  60
ENDBRANCH  58  59
ENDBRANCH  48  58
ENDBRANCH  42  43
ENDBRANCH  32  42
BRANCH  33  95
HETATM   95  O   UNL     1      -1.394 -12.501   1.012  1.00  0.00    -0.390 OA
HETATM   96  H   UNL     1      -1.077 -11.650   1.409  1.00  0.00     0.210 HD
ENDBRANCH  33  95
BRANCH  34  97
HETATM   97  O   UNL     1      -2.299 -14.649  -0.573  1.00  0.00    -0.388 OA
HETATM   98  H   UNL     1      -2.918 -14.918  -1.299  1.00  0.00     0.210 HD
ENDBRANCH  34  97
ENDBRANCH  28  29
ENDBRANCH   1  28
BRANCH   3  99
HETATM   99  O   UNL     1      -0.909 -18.194  -1.004  1.00  0.00    -0.390 OA
HETATM  100  H   UNL     1      -1.431 -18.624  -1.731  1.00  0.00     0.210 HD
ENDBRANCH   3  99
BRANCH   4 101
HETATM  101  O   UNL     1       1.295 -18.075   0.807  1.00  0.00    -0.376 OA
BRANCH 101 102
HETATM  102  C   UNL     1       0.135 -18.494   1.525  1.00  0.00     0.194 C 
BRANCH 102 103
HETATM  103  C   UNL     1       0.382 -19.783   2.416  1.00  0.00     0.116 C 
BRANCH 103 104
HETATM  104  N   UNL     1       0.086 -21.036   1.678  1.00  0.00    -0.343 N 
HETATM  105  C   UNL     1      -1.077 -21.437   1.118  1.00  0.00     0.111 A 
HETATM  106  C   UNL     1      -0.887 -22.676   0.550  1.00  0.00     0.135 A 
HETATM  107  N   UNL     1       0.379 -23.070   0.768  1.00  0.00    -0.255 NA
HETATM  108  C   UNL     1       0.942 -22.061   1.461  1.00  0.00     0.209 A 
ENDBRANCH 103 104
BRANCH 103 109
HETATM  109  C   UNL     1       1.813 -19.722   3.079  1.00  0.00     0.053 C 
BRANCH 109 110
HETATM  110  C   UNL     1       2.104 -19.418   4.611  1.00  0.00     0.094 C 
BRANCH 110 111
HETATM  111  C   UNL     1       0.992 -19.937   5.620  1.00  0.00     0.051 C 
BRANCH 111 112
HETATM  112  C   UNL     1       0.780 -21.496   5.807  1.00  0.00     0.094 C 
BRANCH 112 113
HETATM  113  N   UNL     1      -0.426 -22.001   5.125  1.00  0.00    -0.345 N 
HETATM  114  C   UNL     1      -1.649 -21.438   5.097  1.00  0.00     0.111 A 
HETATM  115  C   UNL     1      -2.493 -22.287   4.413  1.00  0.00     0.135 A 
HETATM  116  N   UNL     1      -1.810 -23.383   4.034  1.00  0.00    -0.255 NA
HETATM  117  C   UNL     1      -0.558 -23.184   4.488  1.00  0.00     0.209 A 
ENDBRANCH 112 113
BRANCH 112 118
HETATM  118  C   UNL     1       0.697 -21.986   7.304  1.00  0.00     0.051 C 
BRANCH 118 119
HETATM  119  C   UNL     1       1.494 -23.305   7.538  1.00  0.00     0.094 C 
BRANCH 119 120
HETATM  120  C   UNL     1       2.708 -23.229   8.529  1.00  0.00     0.051 C 
BRANCH 120 121
HETATM  121  C   UNL     1       4.134 -23.711   8.093  1.00  0.00     0.089 C 
HETATM  122  C   UNL     1       4.316 -23.482   6.582  1.00  0.00     0.033 C 
BRANCH 121 123
HETATM  123  N   UNL     1       5.251 -23.094   8.789  1.00  0.00    -0.334 N 
HETATM  124  C   UNL     1       5.347 -21.816   9.371  1.00  0.00     0.082 A 
HETATM  125  C   UNL     1       6.578 -21.724   9.871  1.00  0.00     0.150 A 
HETATM  126  N   UNL     1       7.301 -22.914   9.625  1.00  0.00    -0.254 NA
HETATM  127  C   UNL     1       6.511 -23.692   8.994  1.00  0.00     0.210 A 
ENDBRANCH 121 123
ENDBRANCH 120 121
ENDBRANCH 119 120
BRANCH 119 128
HETATM  128  N   UNL     1       0.581 -24.412   7.887  1.00  0.00    -0.345 N 
HETATM  129  C   UNL     1       0.903 -25.626   8.388  1.00  0.00     0.209 A 
HETATM  130  N   UNL     1      -0.183 -26.390   8.615  1.00  0.00    -0.255 NA
HETATM  131  C   UNL     1      -1.226 -25.622   8.247  1.00  0.00     0.135 A 
HETATM  132  C   UNL     1      -0.762 -24.403   7.802  1.00  0.00     0.111 A 
ENDBRANCH 119 128
ENDBRANCH 118 119
ENDBRANCH 112 118
ENDBRANCH 111 112
ENDBRANCH 110 111
BRANCH 110 133
HETATM  133  N   UNL     1       3.522 -19.660   4.989  1.00  0.00    -0.345 N 
HETATM  134  C   UNL     1       4.101 -19.674   6.206  1.00  0.00     0.111 A 
HETATM  135  C   UNL     1       5.421 -20.037   6.062  1.00  0.00     0.135 A 
HETATM  136  N   UNL     1       5.666 -20.299   4.769  1.00  0.00    -0.255 NA
HETATM  137  C   UNL     1       4.489 -20.080   4.147  1.00  0.00     0.209 A 
ENDBRANCH 110 133
ENDBRANCH 109 110
ENDBRANCH 103 109
ENDBRANCH 102 103
ENDBRANCH 101 102
ENDBRANCH   4 101
BRANCH  13 138
HETATM  138  O   UNL     1       4.987 -21.886  -0.345  1.00  0.00    -0.390 OA
HETATM  139  H   UNL     1       4.338 -21.744   0.392  1.00  0.00     0.210 HD
ENDBRANCH  13 138
BRANCH  17 140
HETATM  140  O   UNL     1       4.724 -23.702  -2.703  1.00  0.00    -0.388 OA
HETATM  141  H   UNL     1       5.514 -24.128  -2.282  1.00  0.00     0.210 HD
ENDBRANCH  17 140
BRANCH  15 142
HETATM  142  O   UNL     1       7.246 -22.996  -2.325  1.00  0.00    -0.348 OA
BRANCH 142 143
HETATM  143  C   UNL     1       8.176 -23.599  -3.221  1.00  0.00     0.187 C 
HETATM  144  C   UNL     1       9.674 -23.376  -2.752  1.00  0.00     0.177 C 
HETATM  145  O   UNL     1      10.571 -24.415  -3.176  1.00  0.00    -0.378 OA
HETATM  146  C   UNL     1      10.181 -24.998  -4.397  1.00  0.00     0.202 C 
HETATM  147  C   UNL     1       8.892 -25.827  -4.209  1.00  0.00     0.173 C 
HETATM  148  C   UNL     1       7.911 -25.118  -3.227  1.00  0.00     0.180 C 
BRANCH 144 149
HETATM  149  C   UNL     1      10.234 -22.009  -3.185  1.00  0.00     0.215 C 
BRANCH 149 150
HETATM  150  O   UNL     1      10.512 -21.803  -4.540  1.00  0.00    -0.303 OA
BRANCH 150 151
HETATM  151  C   UNL     1      11.302 -20.995  -5.318  1.00  0.00     0.323 C 
HETATM  152  C   UNL     1      10.964 -20.945  -6.785  1.00  0.00     0.147 C 
HETATM  153  O   UNL     1      11.212 -19.848  -4.911  1.00  0.00    -0.241 OA
BRANCH 151 154
HETATM  154  O   UNL     1      12.582 -21.413  -5.260  1.00  0.00    -0.132 OA
HETATM  155 NA   UNL     1      13.959 -20.774  -6.590  1.00  0.00     0.000 Na
ENDBRANCH 151 154
ENDBRANCH 150 151
ENDBRANCH 149 150
ENDBRANCH 144 149
BRANCH 147 156
HETATM  156  O   UNL     1       9.145 -27.150  -3.800  1.00  0.00    -0.391 OA
HETATM  157  H   UNL     1       9.163 -27.727  -4.608  1.00  0.00     0.210 HD
ENDBRANCH 147 156
BRANCH 148 158
HETATM  158  O   UNL     1       8.003 -25.631  -1.915  1.00  0.00    -0.390 OA
HETATM  159  H   UNL     1       7.975 -26.620  -1.943  1.00  0.00     0.210 HD
ENDBRANCH 148 158
ENDBRANCH 142 143
ENDBRANCH  15 142
TORSDOF 60
ENDMDL
MODEL 9
REMARK VINA RESULT:      -5.9      7.670     15.814
REMARK WARNING: 32 MAX_TORS EXCEEDED!!!
REMARK  60 active torsions:
REMARK  status: ('A' for Active; 'I' for Inactive)
REMARK    1  A    between atoms: C_1  and  O_30 
REMARK    2  A    between atoms: C_3  and  O_9 
REMARK    3  A    between atoms: C_4  and  O_11 
REMARK    4  A    between atoms: O_11  and  C_106 
REMARK    5  A    between atoms: O_14  and  C_18 
REMARK    6  A    between atoms: O_19  and  C_22 
REMARK    7  A    between atoms: O_19  and  C_42 
REMARK    8  A    between atoms: O_21  and  C_24 
REMARK    9  A    between atoms: O_26  and  C_29 
REMARK   10  A    between atoms: C_28  and  C_34 
REMARK   11  A    between atoms: O_30  and  C_33 
REMARK   12  A    between atoms: C_31  and  O_53 
REMARK   13  A    between atoms: O_32  and  C_35 
REMARK   14  A    between atoms: C_34  and  O_59 
REMARK   15  A    between atoms: O_37  and  C_41 
REMARK   16  A    between atoms: C_39  and  C_45 
REMARK   17  A    between atoms: O_40  and  C_45 
REMARK   18  A    between atoms: O_40  and  C_157 
REMARK   19  A    between atoms: O_43  and  C_46 
REMARK   20  A    between atoms: O_48  and  C_52 
REMARK   21  A    between atoms: C_50  and  C_57 
REMARK   22  A    between atoms: O_51  and  C_57 
REMARK   23  A    between atoms: O_51  and  C_135 
REMARK   24  A    between atoms: O_53  and  C_56 
REMARK   25  A    between atoms: O_55  and  C_58 
REMARK   26  A    between atoms: O_55  and  C_60 
REMARK   27  A    between atoms: O_59  and  C_141 
REMARK   28  A    between atoms: C_60  and  C_61 
REMARK   29  A    between atoms: C_61  and  C_62 
REMARK   30  A    between atoms: C_61  and  N_75 
REMARK   31  A    between atoms: C_62  and  C_63 
REMARK   32  A    between atoms: C_63  and  C_64 
REMARK   33  A    between atoms: C_63  and  N_89 
REMARK   34  A    between atoms: C_64  and  C_65 
REMARK   35  A    between atoms: C_65  and  C_66 
REMARK   36  A    between atoms: C_65  and  N_79 
REMARK   37  A    between atoms: C_66  and  C_67 
REMARK   38  A    between atoms: C_67  and  C_68 
REMARK   39  A    between atoms: C_67  and  N_94 
REMARK   40  A    between atoms: C_68  and  C_69 
REMARK   41  A    between atoms: C_69  and  N_84 
REMARK   42  A    between atoms: N_101  and  C_107 
REMARK   43  A    between atoms: C_106  and  C_107 
REMARK   44  A    between atoms: C_107  and  C_114 
REMARK   45  A    between atoms: N_110  and  C_116 
REMARK   46  A    between atoms: C_112  and  C_116 
REMARK   47  A    between atoms: C_112  and  C_118 
REMARK   48  A    between atoms: N_113  and  C_123 
REMARK   49  A    between atoms: C_114  and  C_118 
REMARK   50  A    between atoms: C_116  and  C_120 
REMARK   51  A    between atoms: N_117  and  C_118 
REMARK   52  A    between atoms: C_120  and  C_125 
REMARK   53  A    between atoms: C_123  and  C_124 
REMARK   54  A    between atoms: C_124  and  C_125 
REMARK   55  A    between atoms: C_125  and  N_128 
REMARK   56  A    between atoms: C_135  and  C_136 
REMARK   57  A    between atoms: C_136  and  O_138 
REMARK   58  A    between atoms: C_141  and  C_142 
REMARK   59  A    between atoms: C_142  and  O_143 
REMARK   60  A    between atoms: C_157  and  O_158 
ROOT
HETATM    1  C   UNL     1      12.468 -24.571  14.966  1.00  0.00     0.187 C 
HETATM    2  C   UNL     1      14.002 -24.388  14.627  1.00  0.00     0.180 C 
HETATM    3  C   UNL     1      11.604 -23.291  14.718  1.00  0.00     0.183 C 
HETATM    4  C   UNL     1      12.090 -22.462  13.486  1.00  0.00     0.208 C 
HETATM    5  C   UNL     1      13.586 -22.211  13.835  1.00  0.00     0.292 C 
HETATM    6  C   UNL     1      14.922 -24.164  15.872  1.00  0.00     0.203 C 
HETATM    7  O   UNL     1      16.335 -24.108  15.663  1.00  0.00    -0.370 OA
HETATM    8  O   UNL     1      14.273 -23.425  13.600  1.00  0.00    -0.348 OA
HETATM    9  O   UNL     1      14.183 -21.118  13.117  1.00  0.00    -0.348 OA
HETATM   10  O   UNL     1      16.662 -18.556  13.632  1.00  0.00    -0.348 OA
HETATM   11  C   UNL     1      16.219 -19.880  13.916  1.00  0.00     0.180 C 
HETATM   12  O   UNL     1      18.309 -20.158  15.128  1.00  0.00    -0.304 OA
HETATM   13  C   UNL     1      13.962 -18.702  13.677  1.00  0.00     0.183 C 
HETATM   14  C   UNL     1      14.664 -20.046  13.972  1.00  0.00     0.187 C 
HETATM   15  C   UNL     1      16.106 -17.493  14.398  1.00  0.00     0.292 C 
HETATM   16  C   UNL     1      16.942 -20.404  15.172  1.00  0.00     0.215 C 
HETATM   17  C   UNL     1      14.581 -17.668  14.651  1.00  0.00     0.204 C 
HETATM   18 NA   UNL     1      17.607 -24.860  11.385  1.00  0.00     0.050 Na
HETATM   19  C   UNL     1      16.720 -24.388  14.337  1.00  0.00     0.261 C 
HETATM   20  C   UNL     1      17.934 -25.261  14.272  1.00  0.00     0.310 C 
HETATM   21  O   UNL     1      18.445 -25.590  13.070  1.00  0.00    -0.185 OA
HETATM   22  O   UNL     1      18.470 -25.670  15.289  1.00  0.00    -0.261 OA
HETATM   23 NA   UNL     1      19.504 -22.497  11.993  1.00  0.00     0.051 Na
HETATM   24  C   UNL     1      19.485 -19.810  13.120  1.00  0.00     0.146 C 
HETATM   25  C   UNL     1      19.237 -20.711  14.297  1.00  0.00     0.314 C 
HETATM   26  O   UNL     1      18.840 -21.896  13.796  1.00  0.00    -0.172 OA
HETATM   27  O   UNL     1      20.307 -20.810  14.875  1.00  0.00    -0.242 OA
ENDROOT
BRANCH   1  28
HETATM   28  O   UNL     1      11.943 -25.664  14.221  1.00  0.00    -0.348 OA
BRANCH  28  29
HETATM   29  C   UNL     1      11.465 -26.745  15.040  1.00  0.00     0.292 C 
HETATM   30  O   UNL     1      11.726 -26.439  16.405  1.00  0.00    -0.348 OA
HETATM   31  C   UNL     1      11.340 -27.462  17.341  1.00  0.00     0.180 C 
HETATM   32  C   UNL     1      11.590 -28.927  16.852  1.00  0.00     0.187 C 
HETATM   33  C   UNL     1      12.649 -28.924  15.751  1.00  0.00     0.183 C 
HETATM   34  C   UNL     1      12.132 -28.075  14.574  1.00  0.00     0.204 C 
BRANCH  31  35
HETATM   35  C   UNL     1       9.883 -27.283  17.851  1.00  0.00     0.203 C 
BRANCH  35  36
HETATM   36  O   UNL     1       8.969 -28.225  17.335  1.00  0.00    -0.370 OA
BRANCH  36  37
HETATM   37  C   UNL     1       8.110 -27.615  16.412  1.00  0.00     0.262 C 
BRANCH  37  38
HETATM   38  C   UNL     1       7.845 -28.578  15.302  1.00  0.00     0.321 C 
HETATM   39  O   UNL     1       8.775 -29.105  14.709  1.00  0.00    -0.260 OA
BRANCH  38  40
HETATM   40  O   UNL     1       6.580 -28.888  14.970  1.00  0.00    -0.147 OA
HETATM   41 NA   UNL     1       5.191 -27.438  14.844  1.00  0.00     0.000 Na
ENDBRANCH  38  40
ENDBRANCH  37  38
ENDBRANCH  36  37
ENDBRANCH  35  36
ENDBRANCH  31  35
BRANCH  32  42
HETATM   42  O   UNL     1      12.100 -29.727  17.912  1.00  0.00    -0.348 OA
BRANCH  42  43
HETATM   43  C   UNL     1      11.635 -31.060  17.948  1.00  0.00     0.292 C 
HETATM   44  O   UNL     1      10.433 -31.127  17.177  1.00  0.00    -0.351 OA
HETATM   45  C   UNL     1       9.320 -31.712  17.832  1.00  0.00     0.151 C 
HETATM   46  C   UNL     1       9.700 -33.073  18.461  1.00  0.00     0.068 C 
HETATM   47  C   UNL     1      10.924 -32.963  19.411  1.00  0.00     0.154 C 
HETATM   48  C   UNL     1      11.525 -31.540  19.443  1.00  0.00     0.205 C 
BRANCH  45  49
HETATM   49  C   UNL     1       8.192 -31.921  16.798  1.00  0.00     0.200 C 
BRANCH  49  50
HETATM   50  O   UNL     1       6.899 -31.826  17.366  1.00  0.00    -0.379 OA
BRANCH  50  51
HETATM   51  C   UNL     1       6.761 -30.707  18.221  1.00  0.00     0.281 C 
BRANCH  51  52
HETATM   52  C   UNL     1       5.330 -30.249  18.225  1.00  0.00     0.313 C 
HETATM   53  O   UNL     1       4.428 -31.014  18.529  1.00  0.00    -0.260 OA
BRANCH  52  54
HETATM   54  O   UNL     1       5.032 -28.980  17.888  1.00  0.00    -0.148 OA
HETATM   55 NA   UNL     1       3.946 -27.813  19.117  1.00  0.00     0.000 Na
ENDBRANCH  52  54
ENDBRANCH  51  52
ENDBRANCH  50  51
ENDBRANCH  49  50
ENDBRANCH  45  49
BRANCH  47  56
HETATM   56  O   UNL     1      10.627 -33.425  20.705  1.00  0.00    -0.393 OA
HETATM   57  H   UNL     1      10.885 -34.385  20.751  1.00  0.00     0.210 HD
ENDBRANCH  47  56
BRANCH  48  58
HETATM   58  O   UNL     1      10.686 -30.736  20.262  1.00  0.00    -0.376 OA
BRANCH  58  59
HETATM   59  C   UNL     1      11.329 -30.146  21.382  1.00  0.00     0.194 C 
BRANCH  59  60
HETATM   60  C   UNL     1      10.432 -30.039  22.656  1.00  0.00     0.116 C 
BRANCH  60  61
HETATM   61  C   UNL     1       9.234 -29.050  22.413  1.00  0.00     0.053 C 
BRANCH  61  62
HETATM   62  C   UNL     1       8.106 -28.874  23.499  1.00  0.00     0.094 C 
BRANCH  62  63
HETATM   63  C   UNL     1       8.347 -27.565  24.355  1.00  0.00     0.051 C 
BRANCH  63  64
HETATM   64  C   UNL     1       9.491 -26.571  23.958  1.00  0.00     0.094 C 
BRANCH  64  65
HETATM   65  C   UNL     1       8.944 -25.202  23.417  1.00  0.00     0.051 C 
BRANCH  65  66
HETATM   66  C   UNL     1       8.839 -25.188  21.866  1.00  0.00     0.094 C 
BRANCH  66  67
HETATM   67  C   UNL     1      10.028 -25.847  21.089  1.00  0.00     0.051 C 
BRANCH  67  68
HETATM   68  C   UNL     1      11.484 -25.312  21.269  1.00  0.00     0.089 C 
HETATM   69  C   UNL     1      12.451 -26.501  21.404  1.00  0.00     0.033 C 
BRANCH  68  70
HETATM   70  N   UNL     1      11.971 -24.438  20.214  1.00  0.00    -0.334 N 
HETATM   71  C   UNL     1      11.206 -23.978  19.124  1.00  0.00     0.210 A 
HETATM   72  N   UNL     1      11.894 -23.228  18.353  1.00  0.00    -0.254 NA
HETATM   73  C   UNL     1      13.185 -23.149  18.921  1.00  0.00     0.150 A 
HETATM   74  C   UNL     1      13.245 -23.867  20.040  1.00  0.00     0.082 A 
ENDBRANCH  68  70
ENDBRANCH  67  68
ENDBRANCH  66  67
BRANCH  66  75
HETATM   75  N   UNL     1       7.527 -25.652  21.390  1.00  0.00    -0.345 N 
HETATM   76  C   UNL     1       7.257 -26.628  20.496  1.00  0.00     0.209 A 
HETATM   77  N   UNL     1       5.931 -26.793  20.311  1.00  0.00    -0.255 NA
HETATM   78  C   UNL     1       5.352 -25.888  21.125  1.00  0.00     0.135 A 
HETATM   79  C   UNL     1       6.331 -25.188  21.793  1.00  0.00     0.111 A 
ENDBRANCH  66  75
ENDBRANCH  65  66
ENDBRANCH  64  65
BRANCH  64  80
HETATM   80  N   UNL     1      10.368 -26.277  25.111  1.00  0.00    -0.345 N 
HETATM   81  C   UNL     1      11.520 -25.575  25.142  1.00  0.00     0.209 A 
HETATM   82  N   UNL     1      12.027 -25.480  26.389  1.00  0.00    -0.255 NA
HETATM   83  C   UNL     1      11.153 -26.141  27.172  1.00  0.00     0.135 A 
HETATM   84  C   UNL     1      10.129 -26.624  26.394  1.00  0.00     0.111 A 
ENDBRANCH  64  80
ENDBRANCH  63  64
ENDBRANCH  62  63
BRANCH  62  85
HETATM   85  N   UNL     1       6.742 -29.118  22.976  1.00  0.00    -0.345 N 
HETATM   86  C   UNL     1       5.597 -28.636  23.507  1.00  0.00     0.209 A 
HETATM   87  N   UNL     1       4.496 -29.087  22.876  1.00  0.00    -0.255 NA
HETATM   88  C   UNL     1       4.961 -29.914  21.925  1.00  0.00     0.135 A 
HETATM   89  C   UNL     1       6.334 -29.957  21.999  1.00  0.00     0.111 A 
ENDBRANCH  62  85
ENDBRANCH  61  62
ENDBRANCH  60  61
BRANCH  60  90
HETATM   90  N   UNL     1      11.206 -29.788  23.896  1.00  0.00    -0.343 N 
HETATM   91  C   UNL     1      12.358 -29.099  24.068  1.00  0.00     0.111 A 
HETATM   92  C   UNL     1      12.701 -29.144  25.399  1.00  0.00     0.135 A 
HETATM   93  N   UNL     1      11.789 -29.872  26.066  1.00  0.00    -0.255 NA
HETATM   94  C   UNL     1      10.901 -30.256  25.129  1.00  0.00     0.209 A 
ENDBRANCH  60  90
ENDBRANCH  59  60
ENDBRANCH  58  59
ENDBRANCH  48  58
ENDBRANCH  42  43
ENDBRANCH  32  42
BRANCH  33  95
HETATM   95  O   UNL     1      13.892 -28.480  16.247  1.00  0.00    -0.390 OA
HETATM   96  H   UNL     1      14.460 -28.174  15.496  1.00  0.00     0.210 HD
ENDBRANCH  33  95
BRANCH  34  97
HETATM   97  O   UNL     1      13.127 -27.901  13.596  1.00  0.00    -0.388 OA
HETATM   98  H   UNL     1      13.999 -28.134  14.005  1.00  0.00     0.210 HD
ENDBRANCH  34  97
ENDBRANCH  28  29
ENDBRANCH   1  28
BRANCH   3  99
HETATM   99  O   UNL     1      10.244 -23.622  14.617  1.00  0.00    -0.390 OA
HETATM  100  H   UNL     1       9.764 -23.083  15.299  1.00  0.00     0.210 HD
ENDBRANCH   3  99
BRANCH   4 101
HETATM  101  O   UNL     1      11.821 -23.197  12.275  1.00  0.00    -0.376 OA
BRANCH 101 102
HETATM  102  C   UNL     1      11.149 -22.457  11.257  1.00  0.00     0.194 C 
BRANCH 102 103
HETATM  103  C   UNL     1       9.581 -22.370  11.480  1.00  0.00     0.116 C 
BRANCH 103 104
HETATM  104  N   UNL     1       9.181 -21.099  12.135  1.00  0.00    -0.343 N 
HETATM  105  C   UNL     1       8.424 -20.915  13.240  1.00  0.00     0.111 A 
HETATM  106  C   UNL     1       8.306 -19.563  13.470  1.00  0.00     0.135 A 
HETATM  107  N   UNL     1       8.961 -18.894  12.507  1.00  0.00    -0.255 NA
HETATM  108  C   UNL     1       9.474 -19.850  11.707  1.00  0.00     0.209 A 
ENDBRANCH 103 104
BRANCH 103 109
HETATM  109  C   UNL     1       8.820 -22.697  10.137  1.00  0.00     0.053 C 
BRANCH 109 110
HETATM  110  C   UNL     1       7.244 -22.824   9.980  1.00  0.00     0.094 C 
BRANCH 110 111
HETATM  111  C   UNL     1       6.513 -21.505   9.478  1.00  0.00     0.051 C 
BRANCH 111 112
HETATM  112  C   UNL     1       6.688 -21.046   7.972  1.00  0.00     0.094 C 
BRANCH 112 113
HETATM  113  N   UNL     1       7.818 -20.120   7.779  1.00  0.00    -0.345 N 
HETATM  114  C   UNL     1       8.831 -20.232   6.898  1.00  0.00     0.111 A 
HETATM  115  C   UNL     1       9.704 -19.188   7.117  1.00  0.00     0.135 A 
HETATM  116  N   UNL     1       9.253 -18.438   8.140  1.00  0.00    -0.255 NA
HETATM  117  C   UNL     1       8.109 -19.034   8.527  1.00  0.00     0.209 A 
ENDBRANCH 112 113
BRANCH 112 118
HETATM  118  C   UNL     1       5.421 -20.361   7.330  1.00  0.00     0.051 C 
BRANCH 118 119
HETATM  119  C   UNL     1       4.912 -21.126   6.070  1.00  0.00     0.094 C 
BRANCH 119 120
HETATM  120  C   UNL     1       3.694 -22.094   6.276  1.00  0.00     0.051 C 
BRANCH 120 121
HETATM  121  C   UNL     1       2.786 -21.984   7.550  1.00  0.00     0.089 C 
HETATM  122  C   UNL     1       1.973 -20.678   7.492  1.00  0.00     0.033 C 
BRANCH 121 123
HETATM  123  N   UNL     1       1.866 -23.088   7.768  1.00  0.00    -0.334 N 
HETATM  124  C   UNL     1       1.992 -24.203   8.617  1.00  0.00     0.082 A 
HETATM  125  C   UNL     1       0.888 -24.930   8.445  1.00  0.00     0.150 A 
HETATM  126  N   UNL     1       0.038 -24.320   7.495  1.00  0.00    -0.254 NA
HETATM  127  C   UNL     1       0.628 -23.255   7.114  1.00  0.00     0.210 A 
ENDBRANCH 121 123
ENDBRANCH 120 121
ENDBRANCH 119 120
BRANCH 119 128
HETATM  128  N   UNL     1       4.675 -20.192   4.951  1.00  0.00    -0.345 N 
HETATM  129  C   UNL     1       3.917 -19.072   4.952  1.00  0.00     0.209 A 
HETATM  130  N   UNL     1       3.940 -18.438   3.764  1.00  0.00    -0.255 NA
HETATM  131  C   UNL     1       4.748 -19.188   2.990  1.00  0.00     0.135 A 
HETATM  132  C   UNL     1       5.206 -20.265   3.717  1.00  0.00     0.111 A 
ENDBRANCH 119 128
ENDBRANCH 118 119
ENDBRANCH 112 118
ENDBRANCH 111 112
ENDBRANCH 110 111
BRANCH 110 133
HETATM  133  N   UNL     1       6.826 -24.106   9.353  1.00  0.00    -0.345 N 
HETATM  134  C   UNL     1       5.626 -24.479   8.867  1.00  0.00     0.111 A 
HETATM  135  C   UNL     1       5.749 -25.727   8.298  1.00  0.00     0.135 A 
HETATM  136  N   UNL     1       7.028 -26.122   8.380  1.00  0.00    -0.255 NA
HETATM  137  C   UNL     1       7.660 -25.108   9.008  1.00  0.00     0.209 A 
ENDBRANCH 110 133
ENDBRANCH 109 110
ENDBRANCH 103 109
ENDBRANCH 102 103
ENDBRANCH 101 102
ENDBRANCH   4 101
BRANCH  13 138
HETATM  138  O   UNL     1      14.157 -18.297  12.347  1.00  0.00    -0.390 OA
HETATM  139  H   UNL     1      13.254 -18.202  11.946  1.00  0.00     0.210 HD
ENDBRANCH  13 138
BRANCH  17 140
HETATM  140  O   UNL     1      13.897 -16.438  14.672  1.00  0.00    -0.388 OA
HETATM  141  H   UNL     1      13.323 -16.424  15.480  1.00  0.00     0.210 HD
ENDBRANCH  17 140
BRANCH  15 142
HETATM  142  O   UNL     1      16.325 -16.319  13.627  1.00  0.00    -0.348 OA
BRANCH 142 143
HETATM  143  C   UNL     1      17.169 -15.347  14.242  1.00  0.00     0.187 C 
HETATM  144  C   UNL     1      16.761 -15.084  15.751  1.00  0.00     0.177 C 
HETATM  145  O   UNL     1      17.857 -14.665  16.580  1.00  0.00    -0.378 OA
HETATM  146  C   UNL     1      18.826 -13.938  15.863  1.00  0.00     0.202 C 
HETATM  147  C   UNL     1      19.579 -14.867  14.885  1.00  0.00     0.173 C 
HETATM  148  C   UNL     1      18.609 -15.900  14.239  1.00  0.00     0.180 C 
BRANCH 144 149
HETATM  149  C   UNL     1      15.604 -14.077  15.886  1.00  0.00     0.215 C 
BRANCH 149 150
HETATM  150  O   UNL     1      14.502 -14.432  16.672  1.00  0.00    -0.303 OA
BRANCH 150 151
HETATM  151  C   UNL     1      13.263 -13.937  16.991  1.00  0.00     0.323 C 
HETATM  152  C   UNL     1      13.224 -12.522  17.507  1.00  0.00     0.147 C 
HETATM  153  O   UNL     1      12.564 -13.951  15.990  1.00  0.00    -0.241 OA
BRANCH 151 154
HETATM  154  O   UNL     1      12.706 -14.688  17.962  1.00  0.00    -0.132 OA
HETATM  155 NA   UNL     1      10.731 -14.587  18.367  1.00  0.00     0.000 Na
ENDBRANCH 151 154
ENDBRANCH 150 151
ENDBRANCH 149 150
ENDBRANCH 144 149
BRANCH 147 156
HETATM  156  O   UNL     1      20.681 -15.512  15.478  1.00  0.00    -0.391 OA
HETATM  157  H   UNL     1      21.491 -15.293  14.948  1.00  0.00     0.210 HD
ENDBRANCH 147 156
BRANCH 148 158
HETATM  158  O   UNL     1      18.647 -17.152  14.891  1.00  0.00    -0.390 OA
HETATM  159  H   UNL     1      17.728 -17.424  15.140  1.00  0.00     0.210 HD
ENDBRANCH 148 158
ENDBRANCH 142 143
ENDBRANCH  15 142
TORSDOF 60
ENDMDL
