MODEL 1
REMARK VINA RESULT:      -6.6      0.000      0.000
REMARK WARNING: 32 MAX_TORS EXCEEDED!!!
REMARK  40 active torsions:
REMARK  status: ('A' for Active; 'I' for Inactive)
REMARK    1  A    between atoms: C_1  and  O_44 
REMARK    2  A    between atoms: C_2  and  C_6 
REMARK    3  A    between atoms: C_3  and  O_10 
REMARK    4  A    between atoms: C_4  and  N_12 
REMARK    5  A    between atoms: C_5  and  O_14 
REMARK    6  A    between atoms: C_6  and  O_7 
REMARK    7  A    between atoms: O_14  and  C_27 
REMARK    8  A    between atoms: O_16  and  C_21 
REMARK    9  A    between atoms: C_18  and  C_33 
REMARK   10  A    between atoms: O_20  and  C_33 
REMARK   11  A    between atoms: O_22  and  C_30 
REMARK   12  A    between atoms: O_22  and  C_70 
REMARK   13  A    between atoms: O_23  and  C_24 
REMARK   14  A    between atoms: C_24  and  C_28 
REMARK       I    between atoms: N_29  and  C_32 
REMARK   15  A    between atoms: N_29  and  C_35 
REMARK   16  A    between atoms: C_31  and  C_32 
REMARK   17  A    between atoms: O_38  and  C_43 
REMARK   18  A    between atoms: C_40  and  C_55 
REMARK   19  A    between atoms: O_42  and  C_55 
REMARK   20  A    between atoms: O_44  and  C_52 
REMARK   21  A    between atoms: O_45  and  C_46 
REMARK   22  A    between atoms: C_46  and  C_50 
REMARK   23  A    between atoms: C_49  and  O_87 
REMARK       I    between atoms: N_51  and  C_54 
REMARK   24  A    between atoms: N_51  and  C_57 
REMARK   25  A    between atoms: C_53  and  C_54 
REMARK   26  A    between atoms: O_60  and  C_65 
REMARK   27  A    between atoms: C_62  and  C_76 
REMARK   28  A    between atoms: O_64  and  C_76 
REMARK   29  A    between atoms: O_66  and  C_67 
REMARK   30  A    between atoms: C_67  and  C_71 
REMARK       I    between atoms: N_72  and  C_75 
REMARK   31  A    between atoms: N_72  and  C_78 
REMARK   32  A    between atoms: C_74  and  C_75 
REMARK   33  A    between atoms: O_81  and  C_86 
REMARK   34  A    between atoms: C_83  and  C_98 
REMARK   35  A    between atoms: O_85  and  C_98 
REMARK   36  A    between atoms: O_87  and  C_95 
REMARK   37  A    between atoms: O_88  and  C_89 
REMARK   38  A    between atoms: C_89  and  C_93 
REMARK       I    between atoms: N_94  and  C_97 
REMARK   39  A    between atoms: N_94  and  C_100 
REMARK   40  A    between atoms: C_96  and  C_97 
ROOT
HETATM    1  C   UNL     1       3.156 -19.316  -0.267  1.00  0.00     0.186 C 
HETATM    2  C   UNL     1       3.577 -19.451   1.216  1.00  0.00     0.179 C 
HETATM    3  C   UNL     1       1.772 -19.962  -0.487  1.00  0.00     0.187 C 
HETATM    4  C   UNL     1       1.808 -21.405   0.068  1.00  0.00     0.303 C 
HETATM    5  C   UNL     1       2.126 -21.377   1.604  1.00  0.00     0.296 C 
HETATM    6  O   UNL     1       2.572 -20.087   2.038  1.00  0.00    -0.349 OA
ENDROOT
BRANCH   1   7
HETATM    7  O   UNL     1       3.114 -17.930  -0.644  1.00  0.00    -0.348 OA
BRANCH   7   8
HETATM    8  C   UNL     1       4.050 -17.529  -1.653  1.00  0.00     0.286 C 
HETATM    9  O   UNL     1       5.359 -17.793  -1.134  1.00  0.00    -0.349 OA
HETATM   10  C   UNL     1       6.446 -17.479  -2.027  1.00  0.00     0.180 C 
HETATM   11  C   UNL     1       6.382 -16.043  -2.595  1.00  0.00     0.186 C 
HETATM   12  C   UNL     1       5.222 -15.264  -1.950  1.00  0.00     0.177 C 
HETATM   13  C   UNL     1       3.889 -16.024  -2.028  1.00  0.00     0.171 C 
BRANCH  10  14
HETATM   14  C   UNL     1       6.550 -18.531  -3.142  1.00  0.00     0.198 C 
BRANCH  14  15
HETATM   15  O   UNL     1       6.616 -17.916  -4.425  1.00  0.00    -0.398 OA
HETATM   16  H   UNL     1       7.337 -18.342  -4.927  1.00  0.00     0.209 HD
ENDBRANCH  14  15
ENDBRANCH  10  14
BRANCH  11  17
HETATM   17  O   UNL     1       7.610 -15.379  -2.258  1.00  0.00    -0.348 OA
BRANCH  17  18
HETATM   18  C   UNL     1       8.195 -14.542  -3.260  1.00  0.00     0.286 C 
HETATM   19  O   UNL     1       7.145 -14.165  -4.144  1.00  0.00    -0.352 OA
HETATM   20  C   UNL     1       7.533 -13.262  -5.195  1.00  0.00     0.150 C 
HETATM   21  C   UNL     1       8.977 -13.446  -5.672  1.00  0.00     0.068 C 
HETATM   22  C   UNL     1       9.426 -14.886  -5.495  1.00  0.00     0.148 C 
HETATM   23  C   UNL     1       9.345 -15.285  -4.006  1.00  0.00     0.168 C 
BRANCH  20  24
HETATM   24  C   UNL     1       7.268 -11.822  -4.737  1.00  0.00     0.196 C 
BRANCH  24  25
HETATM   25  O   UNL     1       8.144 -10.922  -5.411  1.00  0.00    -0.398 OA
HETATM   26  H   UNL     1       8.927 -11.445  -5.672  1.00  0.00     0.209 HD
ENDBRANCH  24  25
ENDBRANCH  20  24
BRANCH  22  27
HETATM   27  O   UNL     1       8.597 -15.719  -6.311  1.00  0.00    -0.393 OA
HETATM   28  H   UNL     1       7.842 -15.164  -6.583  1.00  0.00     0.210 HD
ENDBRANCH  22  27
BRANCH  23  29
HETATM   29  N   UNL     1       9.302 -16.744  -3.838  1.00  0.00    -0.346 N 
HETATM   30  C   UNL     1      10.400 -17.406  -3.349  1.00  0.00     0.241 C 
HETATM   31  O   UNL     1      11.515 -16.906  -3.288  1.00  0.00    -0.269 OA
HETATM   32  H   UNL     1       8.374 -17.159  -3.766  1.00  0.00     0.163 HD
BRANCH  30  33
HETATM   33  C   UNL     1      10.082 -18.730  -2.776  1.00  0.00     0.080 C 
HETATM   34  C   UNL     1       9.937 -18.824  -1.448  1.00  0.00     0.086 C 
BRANCH  34  35
HETATM   35  C   UNL     1       9.470 -20.080  -0.863  1.00  0.00     0.165 C 
HETATM   36  O   UNL     1      10.007 -21.168  -0.933  1.00  0.00    -0.647 OA
BRANCH  35  37
HETATM   37  O   UNL     1       8.300 -19.891  -0.235  1.00  0.00    -0.773 OA
HETATM   38  H   UNL     1       8.550 -19.545   0.647  1.00  0.00     0.167 HD
ENDBRANCH  35  37
ENDBRANCH  34  35
ENDBRANCH  30  33
ENDBRANCH  23  29
ENDBRANCH  17  18
ENDBRANCH  11  17
BRANCH  12  39
HETATM   39  O   UNL     1       5.529 -14.911  -0.587  1.00  0.00    -0.391 OA
HETATM   40  H   UNL     1       6.288 -15.459  -0.304  1.00  0.00     0.210 HD
ENDBRANCH  12  39
BRANCH  13  41
HETATM   41  N   UNL     1       2.884 -15.314  -1.237  1.00  0.00    -0.346 N 
HETATM   42  C   UNL     1       2.045 -14.386  -1.787  1.00  0.00     0.241 C 
HETATM   43  O   UNL     1       2.147 -13.980  -2.938  1.00  0.00    -0.269 OA
HETATM   44  H   UNL     1       2.694 -15.684  -0.313  1.00  0.00     0.163 HD
BRANCH  42  45
HETATM   45  C   UNL     1       0.993 -13.934  -0.855  1.00  0.00     0.080 C 
HETATM   46  C   UNL     1       0.026 -14.787  -0.494  1.00  0.00     0.086 C 
BRANCH  46  47
HETATM   47  C   UNL     1      -0.985 -14.345   0.465  1.00  0.00     0.165 C 
HETATM   48  O   UNL     1      -1.292 -13.200   0.740  1.00  0.00    -0.647 OA
BRANCH  47  49
HETATM   49  O   UNL     1      -1.583 -15.402   1.035  1.00  0.00    -0.773 OA
HETATM   50  H   UNL     1      -2.413 -15.507   0.526  1.00  0.00     0.167 HD
ENDBRANCH  47  49
ENDBRANCH  46  47
ENDBRANCH  42  45
ENDBRANCH  13  41
ENDBRANCH   7   8
ENDBRANCH   1   7
BRANCH   2  51
HETATM   51  C   UNL     1       4.916 -20.192   1.358  1.00  0.00     0.198 C 
BRANCH  51  52
HETATM   52  O   UNL     1       5.479 -20.472   0.080  1.00  0.00    -0.398 OA
HETATM   53  H   UNL     1       4.785 -20.332  -0.593  1.00  0.00     0.209 HD
ENDBRANCH  51  52
ENDBRANCH   2  51
BRANCH   3  54
HETATM   54  O   UNL     1       0.715 -19.205   0.123  1.00  0.00    -0.391 OA
HETATM   55  H   UNL     1       0.450 -19.667   0.942  1.00  0.00     0.210 HD
ENDBRANCH   3  54
BRANCH   4  56
HETATM   56  N   UNL     1       0.592 -22.137  -0.328  1.00  0.00     0.090 N 
HETATM   57  H   UNL     1      -0.239 -21.563  -0.235  1.00  0.00     0.313 HD
HETATM   58  H   UNL     1       0.684 -22.384  -1.319  1.00  0.00     0.313 HD
ENDBRANCH   4  56
BRANCH   5  59
HETATM   59  O   UNL     1       0.951 -21.693   2.377  1.00  0.00    -0.348 OA
BRANCH  59  60
HETATM   60  C   UNL     1       0.928 -21.128   3.702  1.00  0.00     0.186 C 
HETATM   61  C   UNL     1      -0.444 -20.491   4.049  1.00  0.00     0.179 C 
HETATM   62  O   UNL     1      -1.038 -20.957   5.278  1.00  0.00    -0.349 OA
HETATM   63  C   UNL     1      -0.195 -21.047   6.432  1.00  0.00     0.281 C 
HETATM   64  C   UNL     1       1.212 -21.632   6.114  1.00  0.00     0.149 C 
HETATM   65  C   UNL     1       1.279 -22.245   4.703  1.00  0.00     0.172 C 
BRANCH  61  66
HETATM   66  C   UNL     1      -0.355 -18.958   4.106  1.00  0.00     0.198 C 
BRANCH  66  67
HETATM   67  O   UNL     1       0.367 -18.452   2.990  1.00  0.00    -0.398 OA
HETATM   68  H   UNL     1       0.615 -19.210   2.425  1.00  0.00     0.209 HD
ENDBRANCH  66  67
ENDBRANCH  61  66
BRANCH  63  69
HETATM   69  O   UNL     1      -0.879 -21.808   7.426  1.00  0.00    -0.349 OA
BRANCH  69  70
HETATM   70  C   UNL     1      -1.991 -22.587   6.963  1.00  0.00     0.186 C 
HETATM   71  C   UNL     1      -2.148 -23.907   7.757  1.00  0.00     0.176 C 
HETATM   72  O   UNL     1      -3.541 -24.259   7.974  1.00  0.00    -0.379 OA
HETATM   73  C   UNL     1      -4.378 -24.021   6.835  1.00  0.00     0.196 C 
HETATM   74  C   UNL     1      -4.473 -22.519   6.511  1.00  0.00     0.139 C 
HETATM   75  C   UNL     1      -3.286 -21.755   7.127  1.00  0.00     0.174 C 
BRANCH  71  76
HETATM   76  C   UNL     1      -1.450 -25.107   7.101  1.00  0.00     0.198 C 
BRANCH  76  77
HETATM   77  O   UNL     1      -0.046 -24.866   7.016  1.00  0.00    -0.398 OA
HETATM   78  H   UNL     1       0.379 -25.480   7.648  1.00  0.00     0.209 HD
ENDBRANCH  76  77
ENDBRANCH  71  76
BRANCH  74  79
HETATM   79  N   UNL     1      -5.745 -21.962   6.972  1.00  0.00    -0.348 N 
HETATM   80  C   UNL     1      -6.760 -21.643   6.111  1.00  0.00     0.241 C 
HETATM   81  O   UNL     1      -6.697 -21.770   4.895  1.00  0.00    -0.269 OA
HETATM   82  H   UNL     1      -5.790 -21.673   7.942  1.00  0.00     0.163 HD
BRANCH  80  83
HETATM   83  C   UNL     1      -7.976 -21.158   6.799  1.00  0.00     0.080 C 
HETATM   84  C   UNL     1      -8.070 -19.860   7.119  1.00  0.00     0.086 C 
BRANCH  84  85
HETATM   85  C   UNL     1      -9.316 -19.359   7.700  1.00  0.00     0.165 C 
HETATM   86  O   UNL     1     -10.411 -19.886   7.656  1.00  0.00    -0.647 OA
BRANCH  85  87
HETATM   87  O   UNL     1      -9.108 -18.179   8.304  1.00  0.00    -0.773 OA
HETATM   88  H   UNL     1      -9.893 -17.643   8.064  1.00  0.00     0.167 HD
ENDBRANCH  85  87
ENDBRANCH  84  85
ENDBRANCH  80  83
ENDBRANCH  74  79
BRANCH  75  89
HETATM   89  O   UNL     1      -3.559 -21.467   8.511  1.00  0.00    -0.391 OA
HETATM   90  H   UNL     1      -2.836 -20.909   8.855  1.00  0.00     0.210 HD
ENDBRANCH  75  89
ENDBRANCH  69  70
ENDBRANCH  63  69
BRANCH  64  91
HETATM   91  N   UNL     1       1.917 -22.380   7.170  1.00  0.00    -0.247 NA
HETATM   92  C   UNL     1       2.601 -21.744   8.172  1.00  0.00     0.221 C 
HETATM   93  O   UNL     1       2.136 -21.760   9.309  1.00  0.00    -0.275 OA
HETATM   94  H   UNL     1       1.243 -22.949   7.669  1.00  0.00     0.131 HD
BRANCH  92  95
HETATM   95  C   UNL     1       3.991 -21.362   7.889  1.00  0.00     0.074 C 
HETATM   96  C   UNL     1       4.132 -20.354   7.015  1.00  0.00     0.086 C 
BRANCH  96  97
HETATM   97  C   UNL     1       5.440 -19.784   6.698  1.00  0.00     0.165 C 
HETATM   98  O   UNL     1       5.824 -19.327   5.638  1.00  0.00    -0.647 OA
BRANCH  97  99
HETATM   99  O   UNL     1       6.232 -19.846   7.780  1.00  0.00    -0.773 OA
HETATM  100  H   UNL     1       7.122 -20.027   7.412  1.00  0.00     0.167 HD
ENDBRANCH  97  99
ENDBRANCH  96  97
ENDBRANCH  92  95
ENDBRANCH  64  91
BRANCH  65 101
HETATM  101  O   UNL     1       0.404 -23.362   4.567  1.00  0.00    -0.391 OA
HETATM  102  H   UNL     1      -0.024 -23.497   5.435  1.00  0.00     0.210 HD
ENDBRANCH  65 101
ENDBRANCH  59  60
ENDBRANCH   5  59
TORSDOF 40
ENDMDL
MODEL 2
REMARK VINA RESULT:      -6.5      4.065     12.875
REMARK WARNING: 32 MAX_TORS EXCEEDED!!!
REMARK  40 active torsions:
REMARK  status: ('A' for Active; 'I' for Inactive)
REMARK    1  A    between atoms: C_1  and  O_44 
REMARK    2  A    between atoms: C_2  and  C_6 
REMARK    3  A    between atoms: C_3  and  O_10 
REMARK    4  A    between atoms: C_4  and  N_12 
REMARK    5  A    between atoms: C_5  and  O_14 
REMARK    6  A    between atoms: C_6  and  O_7 
REMARK    7  A    between atoms: O_14  and  C_27 
REMARK    8  A    between atoms: O_16  and  C_21 
REMARK    9  A    between atoms: C_18  and  C_33 
REMARK   10  A    between atoms: O_20  and  C_33 
REMARK   11  A    between atoms: O_22  and  C_30 
REMARK   12  A    between atoms: O_22  and  C_70 
REMARK   13  A    between atoms: O_23  and  C_24 
REMARK   14  A    between atoms: C_24  and  C_28 
REMARK       I    between atoms: N_29  and  C_32 
REMARK   15  A    between atoms: N_29  and  C_35 
REMARK   16  A    between atoms: C_31  and  C_32 
REMARK   17  A    between atoms: O_38  and  C_43 
REMARK   18  A    between atoms: C_40  and  C_55 
REMARK   19  A    between atoms: O_42  and  C_55 
REMARK   20  A    between atoms: O_44  and  C_52 
REMARK   21  A    between atoms: O_45  and  C_46 
REMARK   22  A    between atoms: C_46  and  C_50 
REMARK   23  A    between atoms: C_49  and  O_87 
REMARK       I    between atoms: N_51  and  C_54 
REMARK   24  A    between atoms: N_51  and  C_57 
REMARK   25  A    between atoms: C_53  and  C_54 
REMARK   26  A    between atoms: O_60  and  C_65 
REMARK   27  A    between atoms: C_62  and  C_76 
REMARK   28  A    between atoms: O_64  and  C_76 
REMARK   29  A    between atoms: O_66  and  C_67 
REMARK   30  A    between atoms: C_67  and  C_71 
REMARK       I    between atoms: N_72  and  C_75 
REMARK   31  A    between atoms: N_72  and  C_78 
REMARK   32  A    between atoms: C_74  and  C_75 
REMARK   33  A    between atoms: O_81  and  C_86 
REMARK   34  A    between atoms: C_83  and  C_98 
REMARK   35  A    between atoms: O_85  and  C_98 
REMARK   36  A    between atoms: O_87  and  C_95 
REMARK   37  A    between atoms: O_88  and  C_89 
REMARK   38  A    between atoms: C_89  and  C_93 
REMARK       I    between atoms: N_94  and  C_97 
REMARK   39  A    between atoms: N_94  and  C_100 
REMARK   40  A    between atoms: C_96  and  C_97 
ROOT
HETATM    1  C   UNL     1       0.042 -19.605   1.230  1.00  0.00     0.186 C 
HETATM    2  C   UNL     1       0.652 -18.197   1.433  1.00  0.00     0.179 C 
HETATM    3  C   UNL     1      -0.040 -19.936  -0.275  1.00  0.00     0.187 C 
HETATM    4  C   UNL     1      -0.774 -18.781  -0.994  1.00  0.00     0.303 C 
HETATM    5  C   UNL     1       0.023 -17.442  -0.803  1.00  0.00     0.296 C 
HETATM    6  O   UNL     1       1.043 -17.562   0.195  1.00  0.00    -0.349 OA
ENDROOT
BRANCH   1   7
HETATM    7  O   UNL     1       0.842 -20.591   1.904  1.00  0.00    -0.348 OA
BRANCH   7   8
HETATM    8  C   UNL     1       1.805 -20.081   2.836  1.00  0.00     0.286 C 
HETATM    9  O   UNL     1       3.049 -20.730   2.545  1.00  0.00    -0.349 OA
HETATM   10  C   UNL     1       4.159 -20.322   3.368  1.00  0.00     0.180 C 
HETATM   11  C   UNL     1       3.864 -20.399   4.883  1.00  0.00     0.186 C 
HETATM   12  C   UNL     1       2.479 -21.023   5.127  1.00  0.00     0.177 C 
HETATM   13  C   UNL     1       1.373 -20.335   4.313  1.00  0.00     0.171 C 
BRANCH  10  14
HETATM   14  C   UNL     1       4.656 -18.929   2.952  1.00  0.00     0.198 C 
BRANCH  14  15
HETATM   15  O   UNL     1       5.026 -18.155   4.088  1.00  0.00    -0.398 OA
HETATM   16  H   UNL     1       5.383 -18.763   4.764  1.00  0.00     0.209 HD
ENDBRANCH  14  15
ENDBRANCH  10  14
BRANCH  11  17
HETATM   17  O   UNL     1       4.852 -21.252   5.482  1.00  0.00    -0.348 OA
BRANCH  17  18
HETATM   18  C   UNL     1       5.529 -20.752   6.639  1.00  0.00     0.286 C 
HETATM   19  O   UNL     1       6.883 -21.181   6.539  1.00  0.00    -0.352 OA
HETATM   20  C   UNL     1       7.744 -20.719   7.595  1.00  0.00     0.150 C 
HETATM   21  C   UNL     1       7.038 -20.546   8.944  1.00  0.00     0.068 C 
HETATM   22  C   UNL     1       5.877 -21.515   9.074  1.00  0.00     0.148 C 
HETATM   23  C   UNL     1       4.852 -21.265   7.947  1.00  0.00     0.168 C 
BRANCH  20  24
HETATM   24  C   UNL     1       8.430 -19.421   7.146  1.00  0.00     0.196 C 
BRANCH  24  25
HETATM   25  O   UNL     1       8.007 -18.333   7.963  1.00  0.00    -0.398 OA
HETATM   26  H   UNL     1       7.047 -18.453   8.105  1.00  0.00     0.209 HD
ENDBRANCH  24  25
ENDBRANCH  20  24
BRANCH  22  27
HETATM   27  O   UNL     1       6.395 -22.848   9.031  1.00  0.00    -0.393 OA
HETATM   28  H   UNL     1       7.349 -22.771   9.219  1.00  0.00     0.210 HD
ENDBRANCH  22  27
BRANCH  23  29
HETATM   29  N   UNL     1       3.984 -22.431   7.736  1.00  0.00    -0.346 N 
HETATM   30  C   UNL     1       2.784 -22.516   8.396  1.00  0.00     0.241 C 
HETATM   31  O   UNL     1       2.495 -21.818   9.359  1.00  0.00    -0.269 OA
HETATM   32  H   UNL     1       4.136 -22.952   6.874  1.00  0.00     0.163 HD
BRANCH  30  33
HETATM   33  C   UNL     1       1.822 -23.433   7.752  1.00  0.00     0.080 C 
HETATM   34  C   UNL     1       1.240 -24.371   8.511  1.00  0.00     0.086 C 
BRANCH  34  35
HETATM   35  C   UNL     1       0.170 -25.192   7.945  1.00  0.00     0.165 C 
HETATM   36  O   UNL     1       0.266 -26.009   7.051  1.00  0.00    -0.647 OA
BRANCH  35  37
HETATM   37  O   UNL     1      -0.999 -24.899   8.535  1.00  0.00    -0.773 OA
HETATM   38  H   UNL     1      -1.117 -23.939   8.379  1.00  0.00     0.167 HD
ENDBRANCH  35  37
ENDBRANCH  34  35
ENDBRANCH  30  33
ENDBRANCH  23  29
ENDBRANCH  17  18
ENDBRANCH  11  17
BRANCH  12  39
HETATM   39  O   UNL     1       2.496 -22.441   4.869  1.00  0.00    -0.391 OA
HETATM   40  H   UNL     1       2.006 -22.878   5.593  1.00  0.00     0.210 HD
ENDBRANCH  12  39
BRANCH  13  41
HETATM   41  N   UNL     1       0.131 -21.094   4.451  1.00  0.00    -0.346 N 
HETATM   42  C   UNL     1      -0.569 -21.141   5.624  1.00  0.00     0.241 C 
HETATM   43  O   UNL     1      -0.156 -20.670   6.677  1.00  0.00    -0.269 OA
HETATM   44  H   UNL     1      -0.301 -21.414   3.592  1.00  0.00     0.163 HD
BRANCH  42  45
HETATM   45  C   UNL     1      -1.880 -21.807   5.489  1.00  0.00     0.080 C 
HETATM   46  C   UNL     1      -2.401 -22.447   6.543  1.00  0.00     0.086 C 
BRANCH  46  47
HETATM   47  C   UNL     1      -3.721 -23.063   6.413  1.00  0.00     0.165 C 
HETATM   48  O   UNL     1      -4.700 -22.602   5.857  1.00  0.00    -0.647 OA
BRANCH  47  49
HETATM   49  O   UNL     1      -3.733 -24.271   6.997  1.00  0.00    -0.773 OA
HETATM   50  H   UNL     1      -2.806 -24.579   6.923  1.00  0.00     0.167 HD
ENDBRANCH  47  49
ENDBRANCH  46  47
ENDBRANCH  42  45
ENDBRANCH  13  41
ENDBRANCH   7   8
ENDBRANCH   1   7
BRANCH   2  51
HETATM   51  C   UNL     1      -0.298 -17.277   2.217  1.00  0.00     0.198 C 
BRANCH  51  52
HETATM   52  O   UNL     1      -0.580 -17.817   3.504  1.00  0.00    -0.398 OA
HETATM   53  H   UNL     1      -1.344 -18.420   3.417  1.00  0.00     0.209 HD
ENDBRANCH  51  52
ENDBRANCH   2  51
BRANCH   3  54
HETATM   54  O   UNL     1       1.255 -20.159  -0.854  1.00  0.00    -0.391 OA
HETATM   55  H   UNL     1       1.425 -21.121  -0.845  1.00  0.00     0.210 HD
ENDBRANCH   3  54
BRANCH   4  56
HETATM   56  N   UNL     1      -1.083 -19.157  -2.385  1.00  0.00     0.090 N 
HETATM   57  H   UNL     1      -0.399 -18.788  -3.035  1.00  0.00     0.313 HD
HETATM   58  H   UNL     1      -1.045 -20.180  -2.448  1.00  0.00     0.313 HD
ENDBRANCH   4  56
BRANCH   5  59
HETATM   59  O   UNL     1       0.679 -17.057  -2.027  1.00  0.00    -0.348 OA
BRANCH  59  60
HETATM   60  C   UNL     1       0.351 -15.738  -2.501  1.00  0.00     0.186 C 
HETATM   61  C   UNL     1      -0.808 -15.092  -1.698  1.00  0.00     0.179 C 
HETATM   62  O   UNL     1      -0.523 -13.782  -1.162  1.00  0.00    -0.349 OA
HETATM   63  C   UNL     1       0.108 -12.833  -2.029  1.00  0.00     0.281 C 
HETATM   64  C   UNL     1       1.243 -13.456  -2.893  1.00  0.00     0.149 C 
HETATM   65  C   UNL     1       1.622 -14.871  -2.418  1.00  0.00     0.172 C 
BRANCH  61  66
HETATM   66  C   UNL     1      -2.093 -15.000  -2.536  1.00  0.00     0.198 C 
BRANCH  66  67
HETATM   67  O   UNL     1      -3.210 -14.679  -1.716  1.00  0.00    -0.398 OA
HETATM   68  H   UNL     1      -3.851 -15.414  -1.783  1.00  0.00     0.209 HD
ENDBRANCH  66  67
ENDBRANCH  61  66
BRANCH  63  69
HETATM   69  O   UNL     1       0.577 -11.746  -1.234  1.00  0.00    -0.349 OA
BRANCH  69  70
HETATM   70  C   UNL     1      -0.070 -10.484  -1.453  1.00  0.00     0.186 C 
HETATM   71  C   UNL     1      -1.215 -10.233  -0.440  1.00  0.00     0.176 C 
HETATM   72  O   UNL     1      -1.299  -8.839  -0.036  1.00  0.00    -0.379 OA
HETATM   73  C   UNL     1      -1.099  -7.915  -1.113  1.00  0.00     0.196 C 
HETATM   74  C   UNL     1       0.334  -8.002  -1.670  1.00  0.00     0.139 C 
HETATM   75  C   UNL     1       0.977  -9.353  -1.305  1.00  0.00     0.174 C 
BRANCH  71  76
HETATM   76  C   UNL     1      -2.596 -10.663  -0.953  1.00  0.00     0.198 C 
BRANCH  76  77
HETATM   77  O   UNL     1      -2.897 -11.980  -0.492  1.00  0.00    -0.398 OA
HETATM   78  H   UNL     1      -3.687 -12.273  -0.987  1.00  0.00     0.209 HD
ENDBRANCH  76  77
ENDBRANCH  71  76
BRANCH  74  79
HETATM   79  N   UNL     1       1.154  -6.890  -1.188  1.00  0.00    -0.348 N 
HETATM   80  C   UNL     1       1.220  -5.691  -1.843  1.00  0.00     0.241 C 
HETATM   81  O   UNL     1       0.630  -5.443  -2.887  1.00  0.00    -0.269 OA
HETATM   82  H   UNL     1       1.797  -7.094  -0.431  1.00  0.00     0.163 HD
BRANCH  80  83
HETATM   83  C   UNL     1       2.055  -4.690  -1.143  1.00  0.00     0.080 C 
HETATM   84  C   UNL     1       1.717  -4.313   0.097  1.00  0.00     0.086 C 
BRANCH  84  85
HETATM   85  C   UNL     1       2.600  -3.407   0.832  1.00  0.00     0.165 C 
HETATM   86  O   UNL     1       3.735  -3.631   1.205  1.00  0.00    -0.647 OA
BRANCH  85  87
HETATM   87  O   UNL     1       1.977  -2.245   1.078  1.00  0.00    -0.773 OA
HETATM   88  H   UNL     1       1.111  -2.510   1.452  1.00  0.00     0.167 HD
ENDBRANCH  85  87
ENDBRANCH  84  85
ENDBRANCH  80  83
ENDBRANCH  74  79
BRANCH  75  89
HETATM   89  O   UNL     1       1.508  -9.294   0.032  1.00  0.00    -0.391 OA
HETATM   90  H   UNL     1       2.315  -9.840   0.064  1.00  0.00     0.210 HD
ENDBRANCH  75  89
ENDBRANCH  69  70
ENDBRANCH  63  69
BRANCH  64  91
HETATM   91  N   UNL     1       2.367 -12.596  -3.302  1.00  0.00    -0.247 NA
HETATM   92  C   UNL     1       3.593 -12.672  -2.698  1.00  0.00     0.221 C 
HETATM   93  O   UNL     1       4.531 -13.163  -3.321  1.00  0.00    -0.275 OA
HETATM   94  H   UNL     1       2.573 -12.774  -4.279  1.00  0.00     0.131 HD
BRANCH  92  95
HETATM   95  C   UNL     1       3.783 -11.878  -1.476  1.00  0.00     0.074 C 
HETATM   96  C   UNL     1       4.812 -11.018  -1.517  1.00  0.00     0.086 C 
BRANCH  96  97
HETATM   97  C   UNL     1       5.080 -10.082  -0.427  1.00  0.00     0.165 C 
HETATM   98  O   UNL     1       6.059  -9.378  -0.264  1.00  0.00    -0.647 OA
BRANCH  97  99
HETATM   99  O   UNL     1       4.062 -10.106   0.448  1.00  0.00    -0.773 OA
HETATM  100  H   UNL     1       3.713 -11.019   0.380  1.00  0.00     0.167 HD
ENDBRANCH  97  99
ENDBRANCH  96  97
ENDBRANCH  92  95
ENDBRANCH  64  91
BRANCH  65 101
HETATM  101  O   UNL     1       2.161 -14.861  -1.098  1.00  0.00    -0.391 OA
HETATM  102  H   UNL     1       1.427 -14.643  -0.491  1.00  0.00     0.210 HD
ENDBRANCH  65 101
ENDBRANCH  59  60
ENDBRANCH   5  59
TORSDOF 40
ENDMDL
MODEL 3
REMARK VINA RESULT:      -6.5      2.804     13.554
REMARK WARNING: 32 MAX_TORS EXCEEDED!!!
REMARK  40 active torsions:
REMARK  status: ('A' for Active; 'I' for Inactive)
REMARK    1  A    between atoms: C_1  and  O_44 
REMARK    2  A    between atoms: C_2  and  C_6 
REMARK    3  A    between atoms: C_3  and  O_10 
REMARK    4  A    between atoms: C_4  and  N_12 
REMARK    5  A    between atoms: C_5  and  O_14 
REMARK    6  A    between atoms: C_6  and  O_7 
REMARK    7  A    between atoms: O_14  and  C_27 
REMARK    8  A    between atoms: O_16  and  C_21 
REMARK    9  A    between atoms: C_18  and  C_33 
REMARK   10  A    between atoms: O_20  and  C_33 
REMARK   11  A    between atoms: O_22  and  C_30 
REMARK   12  A    between atoms: O_22  and  C_70 
REMARK   13  A    between atoms: O_23  and  C_24 
REMARK   14  A    between atoms: C_24  and  C_28 
REMARK       I    between atoms: N_29  and  C_32 
REMARK   15  A    between atoms: N_29  and  C_35 
REMARK   16  A    between atoms: C_31  and  C_32 
REMARK   17  A    between atoms: O_38  and  C_43 
REMARK   18  A    between atoms: C_40  and  C_55 
REMARK   19  A    between atoms: O_42  and  C_55 
REMARK   20  A    between atoms: O_44  and  C_52 
REMARK   21  A    between atoms: O_45  and  C_46 
REMARK   22  A    between atoms: C_46  and  C_50 
REMARK   23  A    between atoms: C_49  and  O_87 
REMARK       I    between atoms: N_51  and  C_54 
REMARK   24  A    between atoms: N_51  and  C_57 
REMARK   25  A    between atoms: C_53  and  C_54 
REMARK   26  A    between atoms: O_60  and  C_65 
REMARK   27  A    between atoms: C_62  and  C_76 
REMARK   28  A    between atoms: O_64  and  C_76 
REMARK   29  A    between atoms: O_66  and  C_67 
REMARK   30  A    between atoms: C_67  and  C_71 
REMARK       I    between atoms: N_72  and  C_75 
REMARK   31  A    between atoms: N_72  and  C_78 
REMARK   32  A    between atoms: C_74  and  C_75 
REMARK   33  A    between atoms: O_81  and  C_86 
REMARK   34  A    between atoms: C_83  and  C_98 
REMARK   35  A    between atoms: O_85  and  C_98 
REMARK   36  A    between atoms: O_87  and  C_95 
REMARK   37  A    between atoms: O_88  and  C_89 
REMARK   38  A    between atoms: C_89  and  C_93 
REMARK       I    between atoms: N_94  and  C_97 
REMARK   39  A    between atoms: N_94  and  C_100 
REMARK   40  A    between atoms: C_96  and  C_97 
ROOT
HETATM    1  C   UNL     1       0.729 -20.606   1.373  1.00  0.00     0.186 C 
HETATM    2  C   UNL     1       1.082 -19.102   1.475  1.00  0.00     0.179 C 
HETATM    3  C   UNL     1       1.254 -21.185   0.043  1.00  0.00     0.187 C 
HETATM    4  C   UNL     1       0.743 -20.300  -1.117  1.00  0.00     0.303 C 
HETATM    5  C   UNL     1       1.280 -18.835  -0.945  1.00  0.00     0.296 C 
HETATM    6  O   UNL     1       1.853 -18.621   0.350  1.00  0.00    -0.349 OA
ENDROOT
BRANCH   1   7
HETATM    7  O   UNL     1       1.300 -21.323   2.479  1.00  0.00    -0.348 OA
BRANCH   7   8
HETATM    8  C   UNL     1       2.356 -20.652   3.179  1.00  0.00     0.286 C 
HETATM    9  O   UNL     1       3.549 -21.416   2.967  1.00  0.00    -0.349 OA
HETATM   10  C   UNL     1       4.738 -20.877   3.576  1.00  0.00     0.180 C 
HETATM   11  C   UNL     1       4.572 -20.565   5.080  1.00  0.00     0.186 C 
HETATM   12  C   UNL     1       3.194 -21.037   5.575  1.00  0.00     0.177 C 
HETATM   13  C   UNL     1       2.044 -20.513   4.701  1.00  0.00     0.171 C 
BRANCH  10  14
HETATM   14  C   UNL     1       5.241 -19.657   2.790  1.00  0.00     0.198 C 
BRANCH  14  15
HETATM   15  O   UNL     1       4.993 -18.449   3.503  1.00  0.00    -0.398 OA
HETATM   16  H   UNL     1       5.232 -17.701   2.922  1.00  0.00     0.209 HD
ENDBRANCH  14  15
ENDBRANCH  10  14
BRANCH  11  17
HETATM   17  O   UNL     1       5.580 -21.295   5.797  1.00  0.00    -0.348 OA
BRANCH  17  18
HETATM   18  C   UNL     1       6.257 -20.606   6.852  1.00  0.00     0.286 C 
HETATM   19  O   UNL     1       7.650 -20.821   6.654  1.00  0.00    -0.352 OA
HETATM   20  C   UNL     1       8.507 -20.147   7.593  1.00  0.00     0.150 C 
HETATM   21  C   UNL     1       7.895 -19.985   8.989  1.00  0.00     0.068 C 
HETATM   22  C   UNL     1       6.924 -21.113   9.287  1.00  0.00     0.148 C 
HETATM   23  C   UNL     1       5.783 -21.117   8.247  1.00  0.00     0.168 C 
BRANCH  20  24
HETATM   24  C   UNL     1       8.931 -18.797   7.001  1.00  0.00     0.196 C 
BRANCH  24  25
HETATM   25  O   UNL     1      10.340 -18.627   7.120  1.00  0.00    -0.398 OA
HETATM   26  H   UNL     1      10.534 -18.604   8.078  1.00  0.00     0.209 HD
ENDBRANCH  24  25
ENDBRANCH  20  24
BRANCH  22  27
HETATM   27  O   UNL     1       7.649 -22.346   9.280  1.00  0.00    -0.393 OA
HETATM   28  H   UNL     1       7.920 -22.504  10.205  1.00  0.00     0.210 HD
ENDBRANCH  22  27
BRANCH  23  29
HETATM   29  N   UNL     1       5.105 -22.419   8.192  1.00  0.00    -0.346 N 
HETATM   30  C   UNL     1       3.920 -22.599   8.860  1.00  0.00     0.241 C 
HETATM   31  O   UNL     1       3.512 -21.834   9.724  1.00  0.00    -0.269 OA
HETATM   32  H   UNL     1       5.350 -23.018   7.404  1.00  0.00     0.163 HD
BRANCH  30  33
HETATM   33  C   UNL     1       3.119 -23.727   8.344  1.00  0.00     0.080 C 
HETATM   34  C   UNL     1       1.785 -23.639   8.417  1.00  0.00     0.086 C 
BRANCH  34  35
HETATM   35  C   UNL     1       0.960 -24.663   7.776  1.00  0.00     0.165 C 
HETATM   36  O   UNL     1      -0.249 -24.664   7.657  1.00  0.00    -0.647 OA
BRANCH  35  37
HETATM   37  O   UNL     1       1.731 -25.671   7.341  1.00  0.00    -0.773 OA
HETATM   38  H   UNL     1       1.189 -26.114   6.655  1.00  0.00     0.167 HD
ENDBRANCH  35  37
ENDBRANCH  34  35
ENDBRANCH  30  33
ENDBRANCH  23  29
ENDBRANCH  17  18
ENDBRANCH  11  17
BRANCH  12  39
HETATM   39  O   UNL     1       3.143 -22.473   5.677  1.00  0.00    -0.391 OA
HETATM   40  H   UNL     1       3.847 -22.750   6.297  1.00  0.00     0.210 HD
ENDBRANCH  12  39
BRANCH  13  41
HETATM   41  N   UNL     1       0.795 -21.149   5.117  1.00  0.00    -0.346 N 
HETATM   42  C   UNL     1      -0.388 -20.467   5.174  1.00  0.00     0.241 C 
HETATM   43  O   UNL     1      -0.479 -19.256   5.011  1.00  0.00    -0.269 OA
HETATM   44  H   UNL     1       0.798 -22.162   5.163  1.00  0.00     0.163 HD
BRANCH  42  45
HETATM   45  C   UNL     1      -1.548 -21.342   5.437  1.00  0.00     0.080 C 
HETATM   46  C   UNL     1      -1.894 -21.608   6.702  1.00  0.00     0.086 C 
BRANCH  46  47
HETATM   47  C   UNL     1      -3.072 -22.438   6.954  1.00  0.00     0.165 C 
HETATM   48  O   UNL     1      -4.133 -22.088   7.434  1.00  0.00    -0.647 OA
BRANCH  47  49
HETATM   49  O   UNL     1      -2.847 -23.701   6.561  1.00  0.00    -0.773 OA
HETATM   50  H   UNL     1      -3.727 -24.126   6.614  1.00  0.00     0.167 HD
ENDBRANCH  47  49
ENDBRANCH  46  47
ENDBRANCH  42  45
ENDBRANCH  13  41
ENDBRANCH   7   8
ENDBRANCH   1   7
BRANCH   2  51
HETATM   51  C   UNL     1      -0.175 -18.237   1.658  1.00  0.00     0.198 C 
BRANCH  51  52
HETATM   52  O   UNL     1      -0.076 -17.439   2.833  1.00  0.00    -0.398 OA
HETATM   53  H   UNL     1       0.838 -17.098   2.891  1.00  0.00     0.209 HD
ENDBRANCH  51  52
ENDBRANCH   2  51
BRANCH   3  54
HETATM   54  O   UNL     1       2.686 -21.283   0.020  1.00  0.00    -0.391 OA
HETATM   55  H   UNL     1       2.920 -22.197  -0.236  1.00  0.00     0.210 HD
ENDBRANCH   3  54
BRANCH   4  56
HETATM   56  N   UNL     1       1.020 -20.942  -2.413  1.00  0.00     0.090 N 
HETATM   57  H   UNL     1       0.343 -21.665  -2.627  1.00  0.00     0.313 HD
HETATM   58  H   UNL     1       0.943 -20.224  -3.141  1.00  0.00     0.313 HD
ENDBRANCH   4  56
BRANCH   5  59
HETATM   59  O   UNL     1       2.313 -18.551  -1.909  1.00  0.00    -0.348 OA
BRANCH  59  60
HETATM   60  C   UNL     1       3.074 -17.356  -1.647  1.00  0.00     0.186 C 
HETATM   61  C   UNL     1       4.564 -17.504  -2.052  1.00  0.00     0.179 C 
HETATM   62  O   UNL     1       5.062 -16.473  -2.931  1.00  0.00    -0.349 OA
HETATM   63  C   UNL     1       4.736 -15.115  -2.614  1.00  0.00     0.281 C 
HETATM   64  C   UNL     1       3.261 -14.935  -2.151  1.00  0.00     0.149 C 
HETATM   65  C   UNL     1       2.414 -16.193  -2.412  1.00  0.00     0.172 C 
BRANCH  61  66
HETATM   66  C   UNL     1       5.479 -17.570  -0.819  1.00  0.00     0.198 C 
BRANCH  66  67
HETATM   67  O   UNL     1       4.712 -17.598   0.378  1.00  0.00    -0.398 OA
HETATM   68  H   UNL     1       5.099 -16.948   0.997  1.00  0.00     0.209 HD
ENDBRANCH  66  67
ENDBRANCH  61  66
BRANCH  63  69
HETATM   69  O   UNL     1       5.044 -14.307  -3.748  1.00  0.00    -0.349 OA
BRANCH  69  70
HETATM   70  C   UNL     1       6.266 -13.559  -3.672  1.00  0.00     0.186 C 
HETATM   71  C   UNL     1       6.767 -13.410  -2.214  1.00  0.00     0.176 C 
HETATM   72  O   UNL     1       8.216 -13.482  -2.117  1.00  0.00    -0.379 OA
HETATM   73  C   UNL     1       8.897 -12.786  -3.169  1.00  0.00     0.196 C 
HETATM   74  C   UNL     1       8.633 -13.439  -4.538  1.00  0.00     0.139 C 
HETATM   75  C   UNL     1       7.353 -14.293  -4.494  1.00  0.00     0.174 C 
BRANCH  71  76
HETATM   76  C   UNL     1       6.309 -12.112  -1.536  1.00  0.00     0.198 C 
BRANCH  76  77
HETATM   77  O   UNL     1       5.486 -11.361  -2.428  1.00  0.00    -0.398 OA
HETATM   78  H   UNL     1       5.563 -10.425  -2.155  1.00  0.00     0.209 HD
ENDBRANCH  76  77
ENDBRANCH  71  76
BRANCH  74  79
HETATM   79  N   UNL     1       9.780 -14.242  -4.967  1.00  0.00    -0.348 N 
HETATM   80  C   UNL     1      10.309 -14.150  -6.225  1.00  0.00     0.241 C 
HETATM   81  O   UNL     1       9.872 -13.418  -7.104  1.00  0.00    -0.269 OA
HETATM   82  H   UNL     1      10.071 -14.986  -4.343  1.00  0.00     0.163 HD
BRANCH  80  83
HETATM   83  C   UNL     1      11.502 -15.002  -6.418  1.00  0.00     0.080 C 
HETATM   84  C   UNL     1      11.553 -16.198  -5.815  1.00  0.00     0.086 C 
BRANCH  84  85
HETATM   85  C   UNL     1      12.683 -17.087  -6.091  1.00  0.00     0.165 C 
HETATM   86  O   UNL     1      13.218 -17.856  -5.317  1.00  0.00    -0.647 OA
BRANCH  85  87
HETATM   87  O   UNL     1      13.097 -16.935  -7.358  1.00  0.00    -0.773 OA
HETATM   88  H   UNL     1      13.828 -16.286  -7.297  1.00  0.00     0.167 HD
ENDBRANCH  85  87
ENDBRANCH  84  85
ENDBRANCH  80  83
ENDBRANCH  74  79
BRANCH  75  89
HETATM   89  O   UNL     1       7.651 -15.589  -3.942  1.00  0.00    -0.391 OA
HETATM   90  H   UNL     1       8.538 -15.552  -3.539  1.00  0.00     0.210 HD
ENDBRANCH  75  89
ENDBRANCH  69  70
ENDBRANCH  63  69
BRANCH  64  91
HETATM   91  N   UNL     1       2.595 -13.648  -2.417  1.00  0.00    -0.247 NA
HETATM   92  C   UNL     1       2.263 -12.783  -1.407  1.00  0.00     0.221 C 
HETATM   93  O   UNL     1       2.901 -11.740  -1.288  1.00  0.00    -0.275 OA
HETATM   94  H   UNL     1       3.192 -13.091  -3.018  1.00  0.00     0.131 HD
BRANCH  92  95
HETATM   95  C   UNL     1       0.973 -13.005  -0.739  1.00  0.00     0.074 C 
HETATM   96  C   UNL     1       0.641 -12.074   0.168  1.00  0.00     0.086 C 
BRANCH  96  97
HETATM   97  C   UNL     1      -0.650 -12.088   0.852  1.00  0.00     0.165 C 
HETATM   98  O   UNL     1      -1.696 -12.582   0.473  1.00  0.00    -0.647 OA
BRANCH  97  99
HETATM   99  O   UNL     1      -0.550 -11.428   2.017  1.00  0.00    -0.773 OA
HETATM  100  H   UNL     1      -1.384 -11.645   2.484  1.00  0.00     0.167 HD
ENDBRANCH  97  99
ENDBRANCH  96  97
ENDBRANCH  92  95
ENDBRANCH  64  91
BRANCH  65 101
HETATM  101  O   UNL     1       2.303 -16.480  -3.804  1.00  0.00    -0.391 OA
HETATM  102  H   UNL     1       2.550 -15.665  -4.284  1.00  0.00     0.210 HD
ENDBRANCH  65 101
ENDBRANCH  59  60
ENDBRANCH   5  59
TORSDOF 40
ENDMDL
MODEL 4
REMARK VINA RESULT:      -6.3      1.937      3.598
REMARK WARNING: 32 MAX_TORS EXCEEDED!!!
REMARK  40 active torsions:
REMARK  status: ('A' for Active; 'I' for Inactive)
REMARK    1  A    between atoms: C_1  and  O_44 
REMARK    2  A    between atoms: C_2  and  C_6 
REMARK    3  A    between atoms: C_3  and  O_10 
REMARK    4  A    between atoms: C_4  and  N_12 
REMARK    5  A    between atoms: C_5  and  O_14 
REMARK    6  A    between atoms: C_6  and  O_7 
REMARK    7  A    between atoms: O_14  and  C_27 
REMARK    8  A    between atoms: O_16  and  C_21 
REMARK    9  A    between atoms: C_18  and  C_33 
REMARK   10  A    between atoms: O_20  and  C_33 
REMARK   11  A    between atoms: O_22  and  C_30 
REMARK   12  A    between atoms: O_22  and  C_70 
REMARK   13  A    between atoms: O_23  and  C_24 
REMARK   14  A    between atoms: C_24  and  C_28 
REMARK       I    between atoms: N_29  and  C_32 
REMARK   15  A    between atoms: N_29  and  C_35 
REMARK   16  A    between atoms: C_31  and  C_32 
REMARK   17  A    between atoms: O_38  and  C_43 
REMARK   18  A    between atoms: C_40  and  C_55 
REMARK   19  A    between atoms: O_42  and  C_55 
REMARK   20  A    between atoms: O_44  and  C_52 
REMARK   21  A    between atoms: O_45  and  C_46 
REMARK   22  A    between atoms: C_46  and  C_50 
REMARK   23  A    between atoms: C_49  and  O_87 
REMARK       I    between atoms: N_51  and  C_54 
REMARK   24  A    between atoms: N_51  and  C_57 
REMARK   25  A    between atoms: C_53  and  C_54 
REMARK   26  A    between atoms: O_60  and  C_65 
REMARK   27  A    between atoms: C_62  and  C_76 
REMARK   28  A    between atoms: O_64  and  C_76 
REMARK   29  A    between atoms: O_66  and  C_67 
REMARK   30  A    between atoms: C_67  and  C_71 
REMARK       I    between atoms: N_72  and  C_75 
REMARK   31  A    between atoms: N_72  and  C_78 
REMARK   32  A    between atoms: C_74  and  C_75 
REMARK   33  A    between atoms: O_81  and  C_86 
REMARK   34  A    between atoms: C_83  and  C_98 
REMARK   35  A    between atoms: O_85  and  C_98 
REMARK   36  A    between atoms: O_87  and  C_95 
REMARK   37  A    between atoms: O_88  and  C_89 
REMARK   38  A    between atoms: C_89  and  C_93 
REMARK       I    between atoms: N_94  and  C_97 
REMARK   39  A    between atoms: N_94  and  C_100 
REMARK   40  A    between atoms: C_96  and  C_97 
ROOT
HETATM    1  C   UNL     1       4.448 -18.825  -0.496  1.00  0.00     0.186 C 
HETATM    2  C   UNL     1       4.793 -19.287   0.940  1.00  0.00     0.179 C 
HETATM    3  C   UNL     1       2.987 -19.188  -0.834  1.00  0.00     0.187 C 
HETATM    4  C   UNL     1       2.774 -20.692  -0.548  1.00  0.00     0.303 C 
HETATM    5  C   UNL     1       3.041 -20.988   0.969  1.00  0.00     0.296 C 
HETATM    6  O   UNL     1       3.673 -19.886   1.630  1.00  0.00    -0.349 OA
ENDROOT
BRANCH   1   7
HETATM    7  O   UNL     1       4.640 -17.405  -0.617  1.00  0.00    -0.348 OA
BRANCH   7   8
HETATM    8  C   UNL     1       5.066 -16.941  -1.905  1.00  0.00     0.286 C 
HETATM    9  O   UNL     1       6.341 -16.315  -1.722  1.00  0.00    -0.349 OA
HETATM   10  C   UNL     1       6.952 -15.805  -2.923  1.00  0.00     0.180 C 
HETATM   11  C   UNL     1       6.022 -14.882  -3.742  1.00  0.00     0.186 C 
HETATM   12  C   UNL     1       4.706 -14.640  -2.984  1.00  0.00     0.177 C 
HETATM   13  C   UNL     1       4.040 -15.947  -2.531  1.00  0.00     0.171 C 
BRANCH  10  14
HETATM   14  C   UNL     1       7.510 -16.956  -3.775  1.00  0.00     0.198 C 
BRANCH  14  15
HETATM   15  O   UNL     1       7.262 -16.737  -5.160  1.00  0.00    -0.398 OA
HETATM   16  H   UNL     1       8.036 -17.061  -5.660  1.00  0.00     0.209 HD
ENDBRANCH  14  15
ENDBRANCH  10  14
BRANCH  11  17
HETATM   17  O   UNL     1       6.686 -13.618  -3.903  1.00  0.00    -0.348 OA
BRANCH  17  18
HETATM   18  C   UNL     1       6.971 -13.197  -5.240  1.00  0.00     0.286 C 
HETATM   19  O   UNL     1       8.183 -13.837  -5.622  1.00  0.00    -0.352 OA
HETATM   20  C   UNL     1       8.604 -13.580  -6.974  1.00  0.00     0.150 C 
HETATM   21  C   UNL     1       8.213 -12.193  -7.495  1.00  0.00     0.068 C 
HETATM   22  C   UNL     1       8.137 -11.191  -6.357  1.00  0.00     0.148 C 
HETATM   23  C   UNL     1       7.084 -11.644  -5.324  1.00  0.00     0.168 C 
BRANCH  20  24
HETATM   24  C   UNL     1       8.072 -14.696  -7.883  1.00  0.00     0.196 C 
BRANCH  24  25
HETATM   25  O   UNL     1       8.996 -14.958  -8.934  1.00  0.00    -0.398 OA
HETATM   26  H   UNL     1       9.823 -14.494  -8.695  1.00  0.00     0.209 HD
ENDBRANCH  24  25
ENDBRANCH  20  24
BRANCH  22  27
HETATM   27  O   UNL     1       9.436 -11.075  -5.771  1.00  0.00    -0.393 OA
HETATM   28  H   UNL     1       9.574 -10.123  -5.608  1.00  0.00     0.210 HD
ENDBRANCH  22  27
BRANCH  23  29
HETATM   29  N   UNL     1       7.295 -11.003  -4.019  1.00  0.00    -0.346 N 
HETATM   30  C   UNL     1       6.574  -9.883  -3.684  1.00  0.00     0.241 C 
HETATM   31  O   UNL     1       5.953  -9.215  -4.500  1.00  0.00    -0.269 OA
HETATM   32  H   UNL     1       7.702 -11.590  -3.293  1.00  0.00     0.163 HD
BRANCH  30  33
HETATM   33  C   UNL     1       6.506  -9.640  -2.229  1.00  0.00     0.080 C 
HETATM   34  C   UNL     1       5.362  -9.925  -1.595  1.00  0.00     0.086 C 
BRANCH  34  35
HETATM   35  C   UNL     1       5.310  -9.845  -0.135  1.00  0.00     0.165 C 
HETATM   36  O   UNL     1       4.317  -9.822   0.565  1.00  0.00    -0.647 OA
BRANCH  35  37
HETATM   37  O   UNL     1       6.551  -9.762   0.367  1.00  0.00    -0.773 OA
HETATM   38  H   UNL     1       6.671  -8.810   0.565  1.00  0.00     0.167 HD
ENDBRANCH  35  37
ENDBRANCH  34  35
ENDBRANCH  30  33
ENDBRANCH  23  29
ENDBRANCH  17  18
ENDBRANCH  11  17
BRANCH  12  39
HETATM   39  O   UNL     1       4.907 -13.756  -1.864  1.00  0.00    -0.391 OA
HETATM   40  H   UNL     1       5.026 -12.852  -2.219  1.00  0.00     0.210 HD
ENDBRANCH  12  39
BRANCH  13  41
HETATM   41  N   UNL     1       2.904 -15.634  -1.664  1.00  0.00    -0.346 N 
HETATM   42  C   UNL     1       1.631 -15.514  -2.144  1.00  0.00     0.241 C 
HETATM   43  O   UNL     1       1.354 -15.527  -3.338  1.00  0.00    -0.269 OA
HETATM   44  H   UNL     1       3.063 -15.714  -0.666  1.00  0.00     0.163 HD
BRANCH  42  45
HETATM   45  C   UNL     1       0.620 -15.380  -1.076  1.00  0.00     0.080 C 
HETATM   46  C   UNL     1       0.282 -14.160  -0.643  1.00  0.00     0.086 C 
BRANCH  46  47
HETATM   47  C   UNL     1      -0.753 -14.035   0.382  1.00  0.00     0.165 C 
HETATM   48  O   UNL     1      -1.253 -13.010   0.806  1.00  0.00    -0.647 OA
BRANCH  47  49
HETATM   49  O   UNL     1      -1.123 -15.247   0.824  1.00  0.00    -0.773 OA
HETATM   50  H   UNL     1      -0.830 -15.856   0.116  1.00  0.00     0.167 HD
ENDBRANCH  47  49
ENDBRANCH  46  47
ENDBRANCH  42  45
ENDBRANCH  13  41
ENDBRANCH   7   8
ENDBRANCH   1   7
BRANCH   2  51
HETATM   51  C   UNL     1       5.992 -20.249   0.952  1.00  0.00     0.198 C 
BRANCH  51  52
HETATM   52  O   UNL     1       7.094 -19.696   0.239  1.00  0.00    -0.398 OA
HETATM   53  H   UNL     1       6.739 -19.133  -0.476  1.00  0.00     0.209 HD
ENDBRANCH  51  52
ENDBRANCH   2  51
BRANCH   3  54
HETATM   54  O   UNL     1       2.045 -18.388  -0.102  1.00  0.00    -0.391 OA
HETATM   55  H   UNL     1       1.855 -18.847   0.740  1.00  0.00     0.210 HD
ENDBRANCH   3  54
BRANCH   4  56
HETATM   56  N   UNL     1       1.471 -21.134  -1.074  1.00  0.00     0.090 N 
HETATM   57  H   UNL     1       0.862 -20.350  -1.277  1.00  0.00     0.313 HD
HETATM   58  H   UNL     1       1.640 -21.626  -1.957  1.00  0.00     0.313 HD
ENDBRANCH   4  56
BRANCH   5  59
HETATM   59  O   UNL     1       1.807 -21.241   1.668  1.00  0.00    -0.348 OA
BRANCH  59  60
HETATM   60  C   UNL     1       1.738 -20.687   2.996  1.00  0.00     0.186 C 
HETATM   61  C   UNL     1       0.309 -20.208   3.364  1.00  0.00     0.179 C 
HETATM   62  O   UNL     1      -0.214 -20.741   4.598  1.00  0.00    -0.349 OA
HETATM   63  C   UNL     1       0.649 -20.742   5.741  1.00  0.00     0.281 C 
HETATM   64  C   UNL     1       2.107 -21.167   5.402  1.00  0.00     0.149 C 
HETATM   65  C   UNL     1       2.224 -21.763   3.987  1.00  0.00     0.172 C 
BRANCH  61  66
HETATM   66  C   UNL     1       0.229 -18.674   3.429  1.00  0.00     0.198 C 
BRANCH  66  67
HETATM   67  O   UNL     1       1.280 -18.081   2.675  1.00  0.00    -0.398 OA
HETATM   68  H   UNL     1       2.071 -18.648   2.767  1.00  0.00     0.209 HD
ENDBRANCH  66  67
ENDBRANCH  61  66
BRANCH  63  69
HETATM   69  O   UNL     1       0.066 -21.578   6.739  1.00  0.00    -0.349 OA
BRANCH  69  70
HETATM   70  C   UNL     1      -0.924 -22.508   6.277  1.00  0.00     0.186 C 
HETATM   71  C   UNL     1      -0.901 -23.830   7.084  1.00  0.00     0.176 C 
HETATM   72  O   UNL     1      -2.234 -24.371   7.295  1.00  0.00    -0.379 OA
HETATM   73  C   UNL     1      -3.087 -24.262   6.149  1.00  0.00     0.196 C 
HETATM   74  C   UNL     1      -3.387 -22.790   5.809  1.00  0.00     0.139 C 
HETATM   75  C   UNL     1      -2.323 -21.863   6.425  1.00  0.00     0.174 C 
BRANCH  71  76
HETATM   76  C   UNL     1      -0.039 -24.927   6.444  1.00  0.00     0.198 C 
BRANCH  76  77
HETATM   77  O   UNL     1       1.290 -24.447   6.245  1.00  0.00    -0.398 OA
HETATM   78  H   UNL     1       1.886 -25.206   6.404  1.00  0.00     0.209 HD
ENDBRANCH  76  77
ENDBRANCH  71  76
BRANCH  74  79
HETATM   79  N   UNL     1      -4.728 -22.411   6.256  1.00  0.00    -0.348 N 
HETATM   80  C   UNL     1      -5.861 -22.843   5.623  1.00  0.00     0.241 C 
HETATM   81  O   UNL     1      -5.864 -23.557   4.628  1.00  0.00    -0.269 OA
HETATM   82  H   UNL     1      -4.783 -21.685   6.962  1.00  0.00     0.163 HD
BRANCH  80  83
HETATM   83  C   UNL     1      -7.105 -22.392   6.284  1.00  0.00     0.080 C 
HETATM   84  C   UNL     1      -7.387 -21.083   6.319  1.00  0.00     0.086 C 
BRANCH  84  85
HETATM   85  C   UNL     1      -8.667 -20.644   6.875  1.00  0.00     0.165 C 
HETATM   86  O   UNL     1      -9.451 -21.308   7.526  1.00  0.00    -0.647 OA
BRANCH  85  87
HETATM   87  O   UNL     1      -8.902 -19.364   6.552  1.00  0.00    -0.773 OA
HETATM   88  H   UNL     1      -9.348 -19.412   5.681  1.00  0.00     0.167 HD
ENDBRANCH  85  87
ENDBRANCH  84  85
ENDBRANCH  80  83
ENDBRANCH  74  79
BRANCH  75  89
HETATM   89  O   UNL     1      -2.644 -21.602   7.804  1.00  0.00    -0.391 OA
HETATM   90  H   UNL     1      -1.998 -20.960   8.151  1.00  0.00     0.210 HD
ENDBRANCH  75  89
ENDBRANCH  69  70
ENDBRANCH  63  69
BRANCH  64  91
HETATM   91  N   UNL     1       2.904 -21.836   6.445  1.00  0.00    -0.247 NA
HETATM   92  C   UNL     1       3.434 -21.146   7.504  1.00  0.00     0.221 C 
HETATM   93  O   UNL     1       2.947 -21.309   8.620  1.00  0.00    -0.275 OA
HETATM   94  H   UNL     1       2.329 -22.543   6.888  1.00  0.00     0.131 HD
BRANCH  92  95
HETATM   95  C   UNL     1       4.741 -20.508   7.294  1.00  0.00     0.074 C 
HETATM   96  C   UNL     1       5.677 -20.830   8.200  1.00  0.00     0.086 C 
BRANCH  96  97
HETATM   97  C   UNL     1       7.057 -20.364   8.083  1.00  0.00     0.165 C 
HETATM   98  O   UNL     1       7.509 -19.273   8.374  1.00  0.00    -0.647 OA
BRANCH  97  99
HETATM   99  O   UNL     1       7.819 -21.339   7.561  1.00  0.00    -0.773 OA
HETATM  100  H   UNL     1       7.705 -22.087   8.183  1.00  0.00     0.167 HD
ENDBRANCH  97  99
ENDBRANCH  96  97
ENDBRANCH  92  95
ENDBRANCH  64  91
BRANCH  65 101
HETATM  101  O   UNL     1       1.476 -22.969   3.855  1.00  0.00    -0.391 OA
HETATM  102  H   UNL     1       2.075 -23.635   3.465  1.00  0.00     0.210 HD
ENDBRANCH  65 101
ENDBRANCH  59  60
ENDBRANCH   5  59
TORSDOF 40
ENDMDL
MODEL 5
REMARK VINA RESULT:      -6.3      4.079     14.277
REMARK WARNING: 32 MAX_TORS EXCEEDED!!!
REMARK  40 active torsions:
REMARK  status: ('A' for Active; 'I' for Inactive)
REMARK    1  A    between atoms: C_1  and  O_44 
REMARK    2  A    between atoms: C_2  and  C_6 
REMARK    3  A    between atoms: C_3  and  O_10 
REMARK    4  A    between atoms: C_4  and  N_12 
REMARK    5  A    between atoms: C_5  and  O_14 
REMARK    6  A    between atoms: C_6  and  O_7 
REMARK    7  A    between atoms: O_14  and  C_27 
REMARK    8  A    between atoms: O_16  and  C_21 
REMARK    9  A    between atoms: C_18  and  C_33 
REMARK   10  A    between atoms: O_20  and  C_33 
REMARK   11  A    between atoms: O_22  and  C_30 
REMARK   12  A    between atoms: O_22  and  C_70 
REMARK   13  A    between atoms: O_23  and  C_24 
REMARK   14  A    between atoms: C_24  and  C_28 
REMARK       I    between atoms: N_29  and  C_32 
REMARK   15  A    between atoms: N_29  and  C_35 
REMARK   16  A    between atoms: C_31  and  C_32 
REMARK   17  A    between atoms: O_38  and  C_43 
REMARK   18  A    between atoms: C_40  and  C_55 
REMARK   19  A    between atoms: O_42  and  C_55 
REMARK   20  A    between atoms: O_44  and  C_52 
REMARK   21  A    between atoms: O_45  and  C_46 
REMARK   22  A    between atoms: C_46  and  C_50 
REMARK   23  A    between atoms: C_49  and  O_87 
REMARK       I    between atoms: N_51  and  C_54 
REMARK   24  A    between atoms: N_51  and  C_57 
REMARK   25  A    between atoms: C_53  and  C_54 
REMARK   26  A    between atoms: O_60  and  C_65 
REMARK   27  A    between atoms: C_62  and  C_76 
REMARK   28  A    between atoms: O_64  and  C_76 
REMARK   29  A    between atoms: O_66  and  C_67 
REMARK   30  A    between atoms: C_67  and  C_71 
REMARK       I    between atoms: N_72  and  C_75 
REMARK   31  A    between atoms: N_72  and  C_78 
REMARK   32  A    between atoms: C_74  and  C_75 
REMARK   33  A    between atoms: O_81  and  C_86 
REMARK   34  A    between atoms: C_83  and  C_98 
REMARK   35  A    between atoms: O_85  and  C_98 
REMARK   36  A    between atoms: O_87  and  C_95 
REMARK   37  A    between atoms: O_88  and  C_89 
REMARK   38  A    between atoms: C_89  and  C_93 
REMARK       I    between atoms: N_94  and  C_97 
REMARK   39  A    between atoms: N_94  and  C_100 
REMARK   40  A    between atoms: C_96  and  C_97 
ROOT
HETATM    1  C   UNL     1      -0.157 -19.962   1.162  1.00  0.00     0.186 C 
HETATM    2  C   UNL     1       0.624 -18.639   1.354  1.00  0.00     0.179 C 
HETATM    3  C   UNL     1      -0.373 -20.238  -0.340  1.00  0.00     0.187 C 
HETATM    4  C   UNL     1      -1.012 -18.986  -0.985  1.00  0.00     0.303 C 
HETATM    5  C   UNL     1      -0.054 -17.754  -0.819  1.00  0.00     0.296 C 
HETATM    6  O   UNL     1       1.007 -18.018   0.106  1.00  0.00    -0.349 OA
ENDROOT
BRANCH   1   7
HETATM    7  O   UNL     1       0.563 -21.051   1.762  1.00  0.00    -0.348 OA
BRANCH   7   8
HETATM    8  C   UNL     1      -0.210 -21.930   2.588  1.00  0.00     0.286 C 
HETATM    9  O   UNL     1      -1.583 -21.554   2.426  1.00  0.00    -0.349 OA
HETATM   10  C   UNL     1      -2.528 -22.352   3.165  1.00  0.00     0.180 C 
HETATM   11  C   UNL     1      -2.188 -22.476   4.667  1.00  0.00     0.186 C 
HETATM   12  C   UNL     1      -0.976 -21.595   5.015  1.00  0.00     0.177 C 
HETATM   13  C   UNL     1       0.220 -21.846   4.085  1.00  0.00     0.171 C 
BRANCH  10  14
HETATM   14  C   UNL     1      -2.706 -23.727   2.503  1.00  0.00     0.198 C 
BRANCH  14  15
HETATM   15  O   UNL     1      -2.307 -24.776   3.381  1.00  0.00    -0.398 OA
HETATM   16  H   UNL     1      -1.749 -24.386   4.082  1.00  0.00     0.209 HD
ENDBRANCH  14  15
ENDBRANCH  10  14
BRANCH  11  17
HETATM   17  O   UNL     1      -3.318 -22.001   5.416  1.00  0.00    -0.348 OA
BRANCH  17  18
HETATM   18  C   UNL     1      -3.698 -22.755   6.571  1.00  0.00     0.286 C 
HETATM   19  O   UNL     1      -3.339 -24.108   6.314  1.00  0.00    -0.352 OA
HETATM   20  C   UNL     1      -3.591 -25.018   7.400  1.00  0.00     0.150 C 
HETATM   21  C   UNL     1      -4.804 -24.643   8.258  1.00  0.00     0.068 C 
HETATM   22  C   UNL     1      -5.838 -23.897   7.434  1.00  0.00     0.148 C 
HETATM   23  C   UNL     1      -5.223 -22.603   6.859  1.00  0.00     0.168 C 
BRANCH  20  24
HETATM   24  C   UNL     1      -2.318 -25.149   8.247  1.00  0.00     0.196 C 
BRANCH  24  25
HETATM   25  O   UNL     1      -1.226 -24.506   7.596  1.00  0.00    -0.398 OA
HETATM   26  H   UNL     1      -1.155 -23.616   7.993  1.00  0.00     0.209 HD
ENDBRANCH  24  25
ENDBRANCH  20  24
BRANCH  22  27
HETATM   27  O   UNL     1      -6.302 -24.767   6.398  1.00  0.00    -0.393 OA
HETATM   28  H   UNL     1      -5.511 -25.020   5.886  1.00  0.00     0.210 HD
ENDBRANCH  22  27
BRANCH  23  29
HETATM   29  N   UNL     1      -5.988 -22.105   5.708  1.00  0.00    -0.346 N 
HETATM   30  C   UNL     1      -7.041 -21.248   5.908  1.00  0.00     0.241 C 
HETATM   31  O   UNL     1      -7.566 -21.072   7.000  1.00  0.00    -0.269 OA
HETATM   32  H   UNL     1      -5.512 -22.135   4.808  1.00  0.00     0.163 HD
BRANCH  30  33
HETATM   33  C   UNL     1      -7.393 -20.458   4.712  1.00  0.00     0.080 C 
HETATM   34  C   UNL     1      -7.779 -19.187   4.886  1.00  0.00     0.086 C 
BRANCH  34  35
HETATM   35  C   UNL     1      -7.983 -18.331   3.718  1.00  0.00     0.165 C 
HETATM   36  O   UNL     1      -8.534 -18.629   2.677  1.00  0.00    -0.647 OA
BRANCH  35  37
HETATM   37  O   UNL     1      -7.434 -17.126   3.927  1.00  0.00    -0.773 OA
HETATM   38  H   UNL     1      -7.497 -16.993   4.895  1.00  0.00     0.167 HD
ENDBRANCH  35  37
ENDBRANCH  34  35
ENDBRANCH  30  33
ENDBRANCH  23  29
ENDBRANCH  17  18
ENDBRANCH  11  17
BRANCH  12  39
HETATM   39  O   UNL     1      -1.334 -20.199   5.020  1.00  0.00    -0.391 OA
HETATM   40  H   UNL     1      -0.853 -19.769   4.285  1.00  0.00     0.210 HD
ENDBRANCH  12  39
BRANCH  13  41
HETATM   41  N   UNL     1       1.257 -20.851   4.355  1.00  0.00    -0.346 N 
HETATM   42  C   UNL     1       2.197 -21.023   5.331  1.00  0.00     0.241 C 
HETATM   43  O   UNL     1       2.176 -21.946   6.136  1.00  0.00    -0.269 OA
HETATM   44  H   UNL     1       1.379 -20.125   3.657  1.00  0.00     0.163 HD
BRANCH  42  45
HETATM   45  C   UNL     1       3.252 -19.990   5.306  1.00  0.00     0.080 C 
HETATM   46  C   UNL     1       4.334 -20.140   6.080  1.00  0.00     0.086 C 
BRANCH  46  47
HETATM   47  C   UNL     1       5.395 -19.135   6.014  1.00  0.00     0.165 C 
HETATM   48  O   UNL     1       6.357 -19.028   6.751  1.00  0.00    -0.647 OA
BRANCH  47  49
HETATM   49  O   UNL     1       5.187 -18.302   4.983  1.00  0.00    -0.773 OA
HETATM   50  H   UNL     1       4.497 -18.750   4.452  1.00  0.00     0.167 HD
ENDBRANCH  47  49
ENDBRANCH  46  47
ENDBRANCH  42  45
ENDBRANCH  13  41
ENDBRANCH   7   8
ENDBRANCH   1   7
BRANCH   2  51
HETATM   51  C   UNL     1      -0.162 -17.639   2.218  1.00  0.00     0.198 C 
BRANCH  51  52
HETATM   52  O   UNL     1      -0.291 -18.115   3.554  1.00  0.00    -0.398 OA
HETATM   53  H   UNL     1      -0.841 -18.922   3.535  1.00  0.00     0.209 HD
ENDBRANCH  51  52
ENDBRANCH   2  51
BRANCH   3  54
HETATM   54  O   UNL     1       0.848 -20.591  -1.009  1.00  0.00    -0.391 OA
HETATM   55  H   UNL     1       0.742 -20.380  -1.957  1.00  0.00     0.210 HD
ENDBRANCH   3  54
BRANCH   4  56
HETATM   56  N   UNL     1      -1.450 -19.284  -2.360  1.00  0.00     0.090 N 
HETATM   57  H   UNL     1      -0.704 -19.691  -2.912  1.00  0.00     0.313 HD
HETATM   58  H   UNL     1      -2.203 -19.978  -2.304  1.00  0.00     0.313 HD
ENDBRANCH   4  56
BRANCH   5  59
HETATM   59  O   UNL     1       0.564 -17.412  -2.075  1.00  0.00    -0.348 OA
BRANCH  59  60
HETATM   60  C   UNL     1       0.289 -16.077  -2.542  1.00  0.00     0.186 C 
HETATM   61  C   UNL     1      -0.872 -15.406  -1.763  1.00  0.00     0.179 C 
HETATM   62  O   UNL     1      -0.563 -14.112  -1.204  1.00  0.00    -0.349 OA
HETATM   63  C   UNL     1       0.119 -13.172  -2.042  1.00  0.00     0.281 C 
HETATM   64  C   UNL     1       1.258 -13.820  -2.882  1.00  0.00     0.149 C 
HETATM   65  C   UNL     1       1.582 -15.250  -2.414  1.00  0.00     0.172 C 
BRANCH  61  66
HETATM   66  C   UNL     1      -2.130 -15.266  -2.635  1.00  0.00     0.198 C 
BRANCH  66  67
HETATM   67  O   UNL     1      -2.941 -16.432  -2.543  1.00  0.00    -0.398 OA
HETATM   68  H   UNL     1      -3.874 -16.144  -2.498  1.00  0.00     0.209 HD
ENDBRANCH  66  67
ENDBRANCH  61  66
BRANCH  63  69
HETATM   69  O   UNL     1       0.598 -12.109  -1.221  1.00  0.00    -0.349 OA
BRANCH  69  70
HETATM   70  C   UNL     1      -0.142 -10.881  -1.290  1.00  0.00     0.186 C 
HETATM   71  C   UNL     1      -1.412 -10.916  -0.404  1.00  0.00     0.176 C 
HETATM   72  O   UNL     1      -1.677  -9.636   0.231  1.00  0.00    -0.379 OA
HETATM   73  C   UNL     1      -1.451  -8.510  -0.627  1.00  0.00     0.196 C 
HETATM   74  C   UNL     1       0.037  -8.381  -1.003  1.00  0.00     0.139 C 
HETATM   75  C   UNL     1       0.765  -9.723  -0.808  1.00  0.00     0.174 C 
BRANCH  71  76
HETATM   76  C   UNL     1      -2.677 -11.345  -1.159  1.00  0.00     0.198 C 
BRANCH  76  77
HETATM   77  O   UNL     1      -3.086 -12.642  -0.725  1.00  0.00    -0.398 OA
HETATM   78  H   UNL     1      -2.927 -12.674   0.239  1.00  0.00     0.209 HD
ENDBRANCH  76  77
ENDBRANCH  71  76
BRANCH  74  79
HETATM   79  N   UNL     1       0.684  -7.321  -0.227  1.00  0.00    -0.348 N 
HETATM   80  C   UNL     1       0.620  -6.004  -0.590  1.00  0.00     0.241 C 
HETATM   81  O   UNL     1       0.045  -5.592  -1.590  1.00  0.00    -0.269 OA
HETATM   82  H   UNL     1       1.316  -7.618   0.508  1.00  0.00     0.163 HD
BRANCH  80  83
HETATM   83  C   UNL     1       1.287  -5.101   0.373  1.00  0.00     0.080 C 
HETATM   84  C   UNL     1       1.559  -3.842   0.005  1.00  0.00     0.086 C 
BRANCH  84  85
HETATM   85  C   UNL     1       2.119  -2.917   0.991  1.00  0.00     0.165 C 
HETATM   86  O   UNL     1       2.970  -3.159   1.825  1.00  0.00    -0.647 OA
BRANCH  85  87
HETATM   87  O   UNL     1       1.542  -1.711   0.881  1.00  0.00    -0.773 OA
HETATM   88  H   UNL     1       2.293  -1.082   0.895  1.00  0.00     0.167 HD
ENDBRANCH  85  87
ENDBRANCH  84  85
ENDBRANCH  80  83
ENDBRANCH  74  79
BRANCH  75  89
HETATM   89  O   UNL     1       1.135  -9.880   0.575  1.00  0.00    -0.391 OA
HETATM   90  H   UNL     1       2.038  -9.531   0.690  1.00  0.00     0.210 HD
ENDBRANCH  75  89
ENDBRANCH  69  70
ENDBRANCH  63  69
BRANCH  64  91
HETATM   91  N   UNL     1       2.418 -12.989  -3.250  1.00  0.00    -0.247 NA
HETATM   92  C   UNL     1       3.648 -13.169  -2.675  1.00  0.00     0.221 C 
HETATM   93  O   UNL     1       4.551 -13.661  -3.348  1.00  0.00    -0.275 OA
HETATM   94  H   UNL     1       2.601 -13.108  -4.240  1.00  0.00     0.131 HD
BRANCH  92  95
HETATM   95  C   UNL     1       3.896 -12.474  -1.404  1.00  0.00     0.074 C 
HETATM   96  C   UNL     1       4.503 -11.283  -1.522  1.00  0.00     0.086 C 
BRANCH  96  97
HETATM   97  C   UNL     1       4.733 -10.417  -0.368  1.00  0.00     0.165 C 
HETATM   98  O   UNL     1       3.916  -9.776   0.266  1.00  0.00    -0.647 OA
BRANCH  97  99
HETATM   99  O   UNL     1       6.044 -10.388  -0.080  1.00  0.00    -0.773 OA
HETATM  100  H   UNL     1       6.371  -9.591  -0.546  1.00  0.00     0.167 HD
ENDBRANCH  97  99
ENDBRANCH  96  97
ENDBRANCH  92  95
ENDBRANCH  64  91
BRANCH  65 101
HETATM  101  O   UNL     1       2.085 -15.272  -1.080  1.00  0.00    -0.391 OA
HETATM  102  H   UNL     1       2.177 -16.211  -0.824  1.00  0.00     0.210 HD
ENDBRANCH  65 101
ENDBRANCH  59  60
ENDBRANCH   5  59
TORSDOF 40
ENDMDL
MODEL 6
REMARK VINA RESULT:      -6.2     10.844     17.764
REMARK WARNING: 32 MAX_TORS EXCEEDED!!!
REMARK  40 active torsions:
REMARK  status: ('A' for Active; 'I' for Inactive)
REMARK    1  A    between atoms: C_1  and  O_44 
REMARK    2  A    between atoms: C_2  and  C_6 
REMARK    3  A    between atoms: C_3  and  O_10 
REMARK    4  A    between atoms: C_4  and  N_12 
REMARK    5  A    between atoms: C_5  and  O_14 
REMARK    6  A    between atoms: C_6  and  O_7 
REMARK    7  A    between atoms: O_14  and  C_27 
REMARK    8  A    between atoms: O_16  and  C_21 
REMARK    9  A    between atoms: C_18  and  C_33 
REMARK   10  A    between atoms: O_20  and  C_33 
REMARK   11  A    between atoms: O_22  and  C_30 
REMARK   12  A    between atoms: O_22  and  C_70 
REMARK   13  A    between atoms: O_23  and  C_24 
REMARK   14  A    between atoms: C_24  and  C_28 
REMARK       I    between atoms: N_29  and  C_32 
REMARK   15  A    between atoms: N_29  and  C_35 
REMARK   16  A    between atoms: C_31  and  C_32 
REMARK   17  A    between atoms: O_38  and  C_43 
REMARK   18  A    between atoms: C_40  and  C_55 
REMARK   19  A    between atoms: O_42  and  C_55 
REMARK   20  A    between atoms: O_44  and  C_52 
REMARK   21  A    between atoms: O_45  and  C_46 
REMARK   22  A    between atoms: C_46  and  C_50 
REMARK   23  A    between atoms: C_49  and  O_87 
REMARK       I    between atoms: N_51  and  C_54 
REMARK   24  A    between atoms: N_51  and  C_57 
REMARK   25  A    between atoms: C_53  and  C_54 
REMARK   26  A    between atoms: O_60  and  C_65 
REMARK   27  A    between atoms: C_62  and  C_76 
REMARK   28  A    between atoms: O_64  and  C_76 
REMARK   29  A    between atoms: O_66  and  C_67 
REMARK   30  A    between atoms: C_67  and  C_71 
REMARK       I    between atoms: N_72  and  C_75 
REMARK   31  A    between atoms: N_72  and  C_78 
REMARK   32  A    between atoms: C_74  and  C_75 
REMARK   33  A    between atoms: O_81  and  C_86 
REMARK   34  A    between atoms: C_83  and  C_98 
REMARK   35  A    between atoms: O_85  and  C_98 
REMARK   36  A    between atoms: O_87  and  C_95 
REMARK   37  A    between atoms: O_88  and  C_89 
REMARK   38  A    between atoms: C_89  and  C_93 
REMARK       I    between atoms: N_94  and  C_97 
REMARK   39  A    between atoms: N_94  and  C_100 
REMARK   40  A    between atoms: C_96  and  C_97 
ROOT
HETATM    1  C   UNL     1       1.699  -7.590  -0.965  1.00  0.00     0.186 C 
HETATM    2  C   UNL     1       1.314  -6.841  -2.264  1.00  0.00     0.179 C 
HETATM    3  C   UNL     1       1.136  -6.846   0.264  1.00  0.00     0.187 C 
HETATM    4  C   UNL     1       1.578  -5.366   0.190  1.00  0.00     0.303 C 
HETATM    5  C   UNL     1       1.013  -4.706  -1.116  1.00  0.00     0.296 C 
HETATM    6  O   UNL     1       0.487  -5.679  -2.027  1.00  0.00    -0.349 OA
ENDROOT
BRANCH   1   7
HETATM    7  O   UNL     1       1.190  -8.933  -1.000  1.00  0.00    -0.348 OA
BRANCH   7   8
HETATM    8  C   UNL     1       2.168  -9.974  -0.875  1.00  0.00     0.286 C 
HETATM    9  O   UNL     1       3.094  -9.808  -1.956  1.00  0.00    -0.349 OA
HETATM   10  C   UNL     1       4.179 -10.755  -1.984  1.00  0.00     0.180 C 
HETATM   11  C   UNL     1       3.714 -12.226  -1.908  1.00  0.00     0.186 C 
HETATM   12  C   UNL     1       2.179 -12.305  -1.951  1.00  0.00     0.177 C 
HETATM   13  C   UNL     1       1.514 -11.390  -0.912  1.00  0.00     0.171 C 
BRANCH  10  14
HETATM   14  C   UNL     1       5.212 -10.424  -0.895  1.00  0.00     0.198 C 
BRANCH  14  15
HETATM   15  O   UNL     1       6.177 -11.463  -0.769  1.00  0.00    -0.398 OA
HETATM   16  H   UNL     1       6.880 -11.303  -1.428  1.00  0.00     0.209 HD
ENDBRANCH  14  15
ENDBRANCH  10  14
BRANCH  11  17
HETATM   17  O   UNL     1       4.231 -12.912  -3.059  1.00  0.00    -0.348 OA
BRANCH  17  18
HETATM   18  C   UNL     1       5.037 -14.070  -2.822  1.00  0.00     0.286 C 
HETATM   19  O   UNL     1       5.060 -14.271  -1.413  1.00  0.00    -0.352 OA
HETATM   20  C   UNL     1       5.781 -15.440  -0.980  1.00  0.00     0.150 C 
HETATM   21  C   UNL     1       6.966 -15.809  -1.878  1.00  0.00     0.068 C 
HETATM   22  C   UNL     1       7.547 -14.573  -2.541  1.00  0.00     0.148 C 
HETATM   23  C   UNL     1       6.471 -13.882  -3.405  1.00  0.00     0.168 C 
BRANCH  20  24
HETATM   24  C   UNL     1       4.796 -16.607  -0.835  1.00  0.00     0.196 C 
BRANCH  24  25
HETATM   25  O   UNL     1       4.964 -17.529  -1.908  1.00  0.00    -0.398 OA
HETATM   26  H   UNL     1       4.077 -17.889  -2.103  1.00  0.00     0.209 HD
ENDBRANCH  24  25
ENDBRANCH  20  24
BRANCH  22  27
HETATM   27  O   UNL     1       8.042 -13.704  -1.518  1.00  0.00    -0.393 OA
HETATM   28  H   UNL     1       8.779 -14.182  -1.093  1.00  0.00     0.210 HD
ENDBRANCH  22  27
BRANCH  23  29
HETATM   29  N   UNL     1       6.811 -12.478  -3.674  1.00  0.00    -0.346 N 
HETATM   30  C   UNL     1       7.232 -12.106  -4.927  1.00  0.00     0.241 C 
HETATM   31  O   UNL     1       7.602 -12.906  -5.776  1.00  0.00    -0.269 OA
HETATM   32  H   UNL     1       6.407 -11.790  -3.040  1.00  0.00     0.163 HD
BRANCH  30  33
HETATM   33  C   UNL     1       7.066 -10.665  -5.199  1.00  0.00     0.080 C 
HETATM   34  C   UNL     1       6.662  -9.876  -4.194  1.00  0.00     0.086 C 
BRANCH  34  35
HETATM   35  C   UNL     1       6.638  -8.425  -4.385  1.00  0.00     0.165 C 
HETATM   36  O   UNL     1       5.720  -7.756  -4.815  1.00  0.00    -0.647 OA
BRANCH  35  37
HETATM   37  O   UNL     1       7.822  -7.895  -4.042  1.00  0.00    -0.773 OA
HETATM   38  H   UNL     1       7.946  -7.151  -4.668  1.00  0.00     0.167 HD
ENDBRANCH  35  37
ENDBRANCH  34  35
ENDBRANCH  30  33
ENDBRANCH  23  29
ENDBRANCH  17  18
ENDBRANCH  11  17
BRANCH  12  39
HETATM   39  O   UNL     1       1.681 -12.021  -3.273  1.00  0.00    -0.391 OA
HETATM   40  H   UNL     1       0.710 -11.928  -3.209  1.00  0.00     0.210 HD
ENDBRANCH  12  39
BRANCH  13  41
HETATM   41  N   UNL     1       0.069 -11.377  -1.137  1.00  0.00    -0.346 N 
HETATM   42  C   UNL     1      -0.828 -11.610  -0.133  1.00  0.00     0.241 C 
HETATM   43  O   UNL     1      -0.505 -11.974   0.992  1.00  0.00    -0.269 OA
HETATM   44  H   UNL     1      -0.247 -10.985  -2.017  1.00  0.00     0.163 HD
BRANCH  42  45
HETATM   45  C   UNL     1      -2.226 -11.366  -0.538  1.00  0.00     0.080 C 
HETATM   46  C   UNL     1      -2.888 -10.328  -0.013  1.00  0.00     0.086 C 
BRANCH  46  47
HETATM   47  C   UNL     1      -4.258 -10.066  -0.455  1.00  0.00     0.165 C 
HETATM   48  O   UNL     1      -5.248 -10.733  -0.226  1.00  0.00    -0.647 OA
BRANCH  47  49
HETATM   49  O   UNL     1      -4.309  -8.934  -1.174  1.00  0.00    -0.773 OA
HETATM   50  H   UNL     1      -4.591  -8.255  -0.527  1.00  0.00     0.167 HD
ENDBRANCH  47  49
ENDBRANCH  46  47
ENDBRANCH  42  45
ENDBRANCH  13  41
ENDBRANCH   7   8
ENDBRANCH   1   7
BRANCH   2  51
HETATM   51  C   UNL     1       2.556  -6.445  -3.078  1.00  0.00     0.198 C 
BRANCH  51  52
HETATM   52  O   UNL     1       3.732  -7.030  -2.527  1.00  0.00    -0.398 OA
HETATM   53  H   UNL     1       3.579  -7.991  -2.443  1.00  0.00     0.209 HD
ENDBRANCH  51  52
ENDBRANCH   2  51
BRANCH   3  54
HETATM   54  O   UNL     1      -0.293  -6.950   0.354  1.00  0.00    -0.391 OA
HETATM   55  H   UNL     1      -0.677  -6.428  -0.378  1.00  0.00     0.210 HD
ENDBRANCH   3  54
BRANCH   4  56
HETATM   56  N   UNL     1       1.265  -4.674   1.453  1.00  0.00     0.090 N 
HETATM   57  H   UNL     1       0.864  -5.305   2.137  1.00  0.00     0.313 HD
HETATM   58  H   UNL     1       2.145  -4.320   1.842  1.00  0.00     0.313 HD
ENDBRANCH   4  56
BRANCH   5  59
HETATM   59  O   UNL     1      -0.064  -3.800  -0.808  1.00  0.00    -0.348 OA
BRANCH  59  60
HETATM   60  C   UNL     1       0.044  -2.501  -1.422  1.00  0.00     0.186 C 
HETATM   61  C   UNL     1      -0.974  -1.486  -0.838  1.00  0.00     0.179 C 
HETATM   62  O   UNL     1      -0.400  -0.248  -0.368  1.00  0.00    -0.349 OA
HETATM   63  C   UNL     1       0.564   0.398  -1.207  1.00  0.00     0.281 C 
HETATM   64  C   UNL     1       1.572  -0.595  -1.855  1.00  0.00     0.149 C 
HETATM   65  C   UNL     1       1.487  -1.999  -1.227  1.00  0.00     0.172 C 
BRANCH  61  66
HETATM   66  C   UNL     1      -2.079  -1.149  -1.852  1.00  0.00     0.198 C 
BRANCH  66  67
HETATM   67  O   UNL     1      -2.937  -0.133  -1.346  1.00  0.00    -0.398 OA
HETATM   68  H   UNL     1      -2.645   0.720  -1.723  1.00  0.00     0.209 HD
ENDBRANCH  66  67
ENDBRANCH  61  66
BRANCH  63  69
HETATM   69  O   UNL     1       1.222   1.403  -0.438  1.00  0.00    -0.349 OA
BRANCH  69  70
HETATM   70  C   UNL     1       0.745   2.744  -0.618  1.00  0.00     0.186 C 
HETATM   71  C   UNL     1      -0.210   2.864  -1.832  1.00  0.00     0.176 C 
HETATM   72  O   UNL     1      -1.299   3.794  -1.588  1.00  0.00    -0.379 OA
HETATM   73  C   UNL     1      -0.897   4.980  -0.892  1.00  0.00     0.196 C 
HETATM   74  C   UNL     1      -0.422   4.659   0.538  1.00  0.00     0.139 C 
HETATM   75  C   UNL     1      -0.019   3.178   0.656  1.00  0.00     0.174 C 
BRANCH  71  76
HETATM   76  C   UNL     1       0.494   3.284  -3.129  1.00  0.00     0.198 C 
BRANCH  76  77
HETATM   77  O   UNL     1       1.844   2.820  -3.123  1.00  0.00    -0.398 OA
HETATM   78  H   UNL     1       1.822   1.899  -3.452  1.00  0.00     0.209 HD
ENDBRANCH  76  77
ENDBRANCH  71  76
BRANCH  74  79
HETATM   79  N   UNL     1      -1.452   4.998   1.522  1.00  0.00    -0.348 N 
HETATM   80  C   UNL     1      -1.363   6.103   2.323  1.00  0.00     0.241 C 
HETATM   81  O   UNL     1      -0.425   6.889   2.312  1.00  0.00    -0.269 OA
HETATM   82  H   UNL     1      -2.160   4.295   1.698  1.00  0.00     0.163 HD
BRANCH  80  83
HETATM   83  C   UNL     1      -2.545   6.286   3.194  1.00  0.00     0.080 C 
HETATM   84  C   UNL     1      -2.956   5.265   3.958  1.00  0.00     0.086 C 
BRANCH  84  85
HETATM   85  C   UNL     1      -4.056   5.478   4.899  1.00  0.00     0.165 C 
HETATM   86  O   UNL     1      -4.191   6.407   5.673  1.00  0.00    -0.647 OA
BRANCH  85  87
HETATM   87  O   UNL     1      -4.937   4.469   4.823  1.00  0.00    -0.773 OA
HETATM   88  H   UNL     1      -5.154   4.268   5.757  1.00  0.00     0.167 HD
ENDBRANCH  85  87
ENDBRANCH  84  85
ENDBRANCH  80  83
ENDBRANCH  74  79
BRANCH  75  89
HETATM   89  O   UNL     1      -1.192   2.370   0.871  1.00  0.00    -0.391 OA
HETATM   90  H   UNL     1      -1.136   1.985   1.766  1.00  0.00     0.210 HD
ENDBRANCH  75  89
ENDBRANCH  69  70
ENDBRANCH  63  69
BRANCH  64  91
HETATM   91  N   UNL     1       2.929  -0.115  -2.167  1.00  0.00    -0.247 NA
HETATM   92  C   UNL     1       3.491  -0.289  -3.404  1.00  0.00     0.221 C 
HETATM   93  O   UNL     1       3.630   0.688  -4.135  1.00  0.00    -0.275 OA
HETATM   94  H   UNL     1       2.955   0.890  -2.036  1.00  0.00     0.131 HD
BRANCH  92  95
HETATM   95  C   UNL     1       4.179  -1.565  -3.647  1.00  0.00     0.074 C 
HETATM   96  C   UNL     1       4.175  -1.973  -4.926  1.00  0.00     0.086 C 
BRANCH  96  97
HETATM   97  C   UNL     1       4.898  -3.167  -5.358  1.00  0.00     0.165 C 
HETATM   98  O   UNL     1       6.090  -3.290  -5.565  1.00  0.00    -0.647 OA
BRANCH  97  99
HETATM   99  O   UNL     1       4.033  -4.179  -5.533  1.00  0.00    -0.773 OA
HETATM  100  H   UNL     1       4.173  -4.748  -4.748  1.00  0.00     0.167 HD
ENDBRANCH  97  99
ENDBRANCH  96  97
ENDBRANCH  92  95
ENDBRANCH  64  91
BRANCH  65 101
HETATM  101  O   UNL     1       1.854  -1.987   0.150  1.00  0.00    -0.391 OA
HETATM  102  H   UNL     1       2.027  -2.914   0.408  1.00  0.00     0.210 HD
ENDBRANCH  65 101
ENDBRANCH  59  60
ENDBRANCH   5  59
TORSDOF 40
ENDMDL
MODEL 7
REMARK VINA RESULT:      -6.2      4.070     12.496
REMARK WARNING: 32 MAX_TORS EXCEEDED!!!
REMARK  40 active torsions:
REMARK  status: ('A' for Active; 'I' for Inactive)
REMARK    1  A    between atoms: C_1  and  O_44 
REMARK    2  A    between atoms: C_2  and  C_6 
REMARK    3  A    between atoms: C_3  and  O_10 
REMARK    4  A    between atoms: C_4  and  N_12 
REMARK    5  A    between atoms: C_5  and  O_14 
REMARK    6  A    between atoms: C_6  and  O_7 
REMARK    7  A    between atoms: O_14  and  C_27 
REMARK    8  A    between atoms: O_16  and  C_21 
REMARK    9  A    between atoms: C_18  and  C_33 
REMARK   10  A    between atoms: O_20  and  C_33 
REMARK   11  A    between atoms: O_22  and  C_30 
REMARK   12  A    between atoms: O_22  and  C_70 
REMARK   13  A    between atoms: O_23  and  C_24 
REMARK   14  A    between atoms: C_24  and  C_28 
REMARK       I    between atoms: N_29  and  C_32 
REMARK   15  A    between atoms: N_29  and  C_35 
REMARK   16  A    between atoms: C_31  and  C_32 
REMARK   17  A    between atoms: O_38  and  C_43 
REMARK   18  A    between atoms: C_40  and  C_55 
REMARK   19  A    between atoms: O_42  and  C_55 
REMARK   20  A    between atoms: O_44  and  C_52 
REMARK   21  A    between atoms: O_45  and  C_46 
REMARK   22  A    between atoms: C_46  and  C_50 
REMARK   23  A    between atoms: C_49  and  O_87 
REMARK       I    between atoms: N_51  and  C_54 
REMARK   24  A    between atoms: N_51  and  C_57 
REMARK   25  A    between atoms: C_53  and  C_54 
REMARK   26  A    between atoms: O_60  and  C_65 
REMARK   27  A    between atoms: C_62  and  C_76 
REMARK   28  A    between atoms: O_64  and  C_76 
REMARK   29  A    between atoms: O_66  and  C_67 
REMARK   30  A    between atoms: C_67  and  C_71 
REMARK       I    between atoms: N_72  and  C_75 
REMARK   31  A    between atoms: N_72  and  C_78 
REMARK   32  A    between atoms: C_74  and  C_75 
REMARK   33  A    between atoms: O_81  and  C_86 
REMARK   34  A    between atoms: C_83  and  C_98 
REMARK   35  A    between atoms: O_85  and  C_98 
REMARK   36  A    between atoms: O_87  and  C_95 
REMARK   37  A    between atoms: O_88  and  C_89 
REMARK   38  A    between atoms: C_89  and  C_93 
REMARK       I    between atoms: N_94  and  C_97 
REMARK   39  A    between atoms: N_94  and  C_100 
REMARK   40  A    between atoms: C_96  and  C_97 
ROOT
HETATM    1  C   UNL     1       4.575 -17.962  -1.153  1.00  0.00     0.186 C 
HETATM    2  C   UNL     1       3.032 -17.972  -1.272  1.00  0.00     0.179 C 
HETATM    3  C   UNL     1       5.137 -16.609  -1.635  1.00  0.00     0.187 C 
HETATM    4  C   UNL     1       4.575 -16.316  -3.045  1.00  0.00     0.303 C 
HETATM    5  C   UNL     1       3.009 -16.234  -2.989  1.00  0.00     0.296 C 
HETATM    6  O   UNL     1       2.489 -16.718  -1.744  1.00  0.00    -0.349 OA
ENDROOT
BRANCH   1   7
HETATM    7  O   UNL     1       4.965 -18.196   0.211  1.00  0.00    -0.348 OA
BRANCH   7   8
HETATM    8  C   UNL     1       4.141 -19.108   0.948  1.00  0.00     0.286 C 
HETATM    9  O   UNL     1       3.764 -18.443   2.160  1.00  0.00    -0.349 OA
HETATM   10  C   UNL     1       2.900 -19.199   3.030  1.00  0.00     0.180 C 
HETATM   11  C   UNL     1       3.430 -20.615   3.347  1.00  0.00     0.186 C 
HETATM   12  C   UNL     1       4.832 -20.809   2.742  1.00  0.00     0.177 C 
HETATM   13  C   UNL     1       4.884 -20.446   1.251  1.00  0.00     0.171 C 
BRANCH  10  14
HETATM   14  C   UNL     1       1.469 -19.236   2.470  1.00  0.00     0.198 C 
BRANCH  14  15
HETATM   15  O   UNL     1       0.823 -17.976   2.628  1.00  0.00    -0.398 OA
HETATM   16  H   UNL     1       0.265 -18.022   3.428  1.00  0.00     0.209 HD
ENDBRANCH  14  15
ENDBRANCH  10  14
BRANCH  11  17
HETATM   17  O   UNL     1       3.536 -20.738   4.774  1.00  0.00    -0.348 OA
BRANCH  17  18
HETATM   18  C   UNL     1       2.781 -21.781   5.397  1.00  0.00     0.286 C 
HETATM   19  O   UNL     1       1.453 -21.292   5.545  1.00  0.00    -0.352 OA
HETATM   20  C   UNL     1       0.520 -22.235   6.106  1.00  0.00     0.150 C 
HETATM   21  C   UNL     1       1.147 -23.214   7.103  1.00  0.00     0.068 C 
HETATM   22  C   UNL     1       2.338 -22.584   7.803  1.00  0.00     0.148 C 
HETATM   23  C   UNL     1       3.409 -22.183   6.767  1.00  0.00     0.168 C 
BRANCH  20  24
HETATM   24  C   UNL     1      -0.192 -22.970   4.963  1.00  0.00     0.196 C 
BRANCH  24  25
HETATM   25  O   UNL     1      -0.482 -22.066   3.901  1.00  0.00    -0.398 OA
HETATM   26  H   UNL     1       0.282 -22.101   3.293  1.00  0.00     0.209 HD
ENDBRANCH  24  25
ENDBRANCH  20  24
BRANCH  22  27
HETATM   27  O   UNL     1       1.875 -21.453   8.549  1.00  0.00    -0.393 OA
HETATM   28  H   UNL     1       1.804 -21.753   9.474  1.00  0.00     0.210 HD
ENDBRANCH  22  27
BRANCH  23  29
HETATM   29  N   UNL     1       4.332 -21.174   7.304  1.00  0.00    -0.346 N 
HETATM   30  C   UNL     1       5.682 -21.301   7.088  1.00  0.00     0.241 C 
HETATM   31  O   UNL     1       6.207 -22.339   6.706  1.00  0.00    -0.269 OA
HETATM   32  H   UNL     1       3.927 -20.263   7.513  1.00  0.00     0.163 HD
BRANCH  30  33
HETATM   33  C   UNL     1       6.422 -20.031   7.229  1.00  0.00     0.080 C 
HETATM   34  C   UNL     1       7.452 -19.993   8.085  1.00  0.00     0.086 C 
BRANCH  34  35
HETATM   35  C   UNL     1       8.302 -18.804   8.135  1.00  0.00     0.165 C 
HETATM   36  O   UNL     1       8.487 -18.073   9.088  1.00  0.00    -0.647 OA
BRANCH  35  37
HETATM   37  O   UNL     1       8.858 -18.583   6.934  1.00  0.00    -0.773 OA
HETATM   38  H   UNL     1       9.667 -19.136   6.935  1.00  0.00     0.167 HD
ENDBRANCH  35  37
ENDBRANCH  34  35
ENDBRANCH  30  33
ENDBRANCH  23  29
ENDBRANCH  17  18
ENDBRANCH  11  17
BRANCH  12  39
HETATM   39  O   UNL     1       5.823 -20.069   3.482  1.00  0.00    -0.391 OA
HETATM   40  H   UNL     1       6.003 -19.244   2.989  1.00  0.00     0.210 HD
ENDBRANCH  12  39
BRANCH  13  41
HETATM   41  N   UNL     1       6.273 -20.475   0.797  1.00  0.00    -0.346 N 
HETATM   42  C   UNL     1       6.630 -20.957  -0.431  1.00  0.00     0.241 C 
HETATM   43  O   UNL     1       5.849 -21.517  -1.191  1.00  0.00    -0.269 OA
HETATM   44  H   UNL     1       6.937 -19.936   1.341  1.00  0.00     0.163 HD
BRANCH  42  45
HETATM   45  C   UNL     1       8.051 -20.721  -0.755  1.00  0.00     0.080 C 
HETATM   46  C   UNL     1       8.508 -19.465  -0.821  1.00  0.00     0.086 C 
BRANCH  46  47
HETATM   47  C   UNL     1       9.927 -19.242  -1.096  1.00  0.00     0.165 C 
HETATM   48  O   UNL     1      10.805 -18.994  -0.292  1.00  0.00    -0.647 OA
BRANCH  47  49
HETATM   49  O   UNL     1      10.173 -19.361  -2.410  1.00  0.00    -0.773 OA
HETATM   50  H   UNL     1       9.757 -18.566  -2.802  1.00  0.00     0.167 HD
ENDBRANCH  47  49
ENDBRANCH  46  47
ENDBRANCH  42  45
ENDBRANCH  13  41
ENDBRANCH   7   8
ENDBRANCH   1   7
BRANCH   2  51
HETATM   51  C   UNL     1       2.541 -19.124  -2.164  1.00  0.00     0.198 C 
BRANCH  51  52
HETATM   52  O   UNL     1       3.601 -20.032  -2.449  1.00  0.00    -0.398 OA
HETATM   53  H   UNL     1       4.123 -19.664  -3.189  1.00  0.00     0.209 HD
ENDBRANCH  51  52
ENDBRANCH   2  51
BRANCH   3  54
HETATM   54  O   UNL     1       4.828 -15.538  -0.729  1.00  0.00    -0.391 OA
HETATM   55  H   UNL     1       4.567 -14.761  -1.261  1.00  0.00     0.210 HD
ENDBRANCH   3  54
BRANCH   4  56
HETATM   56  N   UNL     1       5.262 -15.157  -3.641  1.00  0.00     0.090 N 
HETATM   57  H   UNL     1       5.478 -15.310  -4.619  1.00  0.00     0.313 HD
HETATM   58  H   UNL     1       4.625 -14.355  -3.589  1.00  0.00     0.313 HD
ENDBRANCH   4  56
BRANCH   5  59
HETATM   59  O   UNL     1       2.561 -14.872  -3.125  1.00  0.00    -0.348 OA
BRANCH  59  60
HETATM   60  C   UNL     1       2.156 -14.241  -1.895  1.00  0.00     0.186 C 
HETATM   61  C   UNL     1       2.387 -12.707  -1.914  1.00  0.00     0.179 C 
HETATM   62  O   UNL     1       1.229 -11.912  -1.581  1.00  0.00    -0.349 OA
HETATM   63  C   UNL     1       0.453 -12.312  -0.446  1.00  0.00     0.281 C 
HETATM   64  C   UNL     1       0.244 -13.853  -0.363  1.00  0.00     0.149 C 
HETATM   65  C   UNL     1       0.668 -14.565  -1.661  1.00  0.00     0.172 C 
BRANCH  61  66
HETATM   66  C   UNL     1       3.537 -12.299  -0.979  1.00  0.00     0.198 C 
BRANCH  66  67
HETATM   67  O   UNL     1       4.772 -12.840  -1.432  1.00  0.00    -0.398 OA
HETATM   68  H   UNL     1       4.876 -12.600  -2.374  1.00  0.00     0.209 HD
ENDBRANCH  66  67
ENDBRANCH  61  66
BRANCH  63  69
HETATM   69  O   UNL     1      -0.786 -11.606  -0.482  1.00  0.00    -0.349 OA
BRANCH  69  70
HETATM   70  C   UNL     1      -0.859 -10.518  -1.415  1.00  0.00     0.186 C 
HETATM   71  C   UNL     1      -2.309 -10.260  -1.897  1.00  0.00     0.176 C 
HETATM   72  O   UNL     1      -2.590  -8.845  -2.071  1.00  0.00    -0.379 OA
HETATM   73  C   UNL     1      -1.512  -8.114  -2.669  1.00  0.00     0.196 C 
HETATM   74  C   UNL     1      -0.276  -8.086  -1.751  1.00  0.00     0.139 C 
HETATM   75  C   UNL     1      -0.333  -9.235  -0.727  1.00  0.00     0.174 C 
BRANCH  71  76
HETATM   76  C   UNL     1      -2.659 -10.981  -3.206  1.00  0.00     0.198 C 
BRANCH  76  77
HETATM   77  O   UNL     1      -2.131 -12.307  -3.188  1.00  0.00    -0.398 OA
HETATM   78  H   UNL     1      -1.166 -12.219  -3.062  1.00  0.00     0.209 HD
ENDBRANCH  76  77
ENDBRANCH  71  76
BRANCH  74  79
HETATM   79  N   UNL     1      -0.153  -6.793  -1.075  1.00  0.00    -0.348 N 
HETATM   80  C   UNL     1       1.032  -6.114  -1.001  1.00  0.00     0.241 C 
HETATM   81  O   UNL     1       2.089  -6.522  -1.466  1.00  0.00    -0.269 OA
HETATM   82  H   UNL     1      -0.949  -6.491  -0.525  1.00  0.00     0.163 HD
BRANCH  80  83
HETATM   83  C   UNL     1       0.910  -4.801  -0.332  1.00  0.00     0.080 C 
HETATM   84  C   UNL     1       1.790  -3.834  -0.629  1.00  0.00     0.086 C 
BRANCH  84  85
HETATM   85  C   UNL     1       1.606  -2.502  -0.051  1.00  0.00     0.165 C 
HETATM   86  O   UNL     1       1.934  -2.132   1.059  1.00  0.00    -0.647 OA
BRANCH  85  87
HETATM   87  O   UNL     1       0.982  -1.697  -0.924  1.00  0.00    -0.773 OA
HETATM   88  H   UNL     1       1.261  -0.795  -0.663  1.00  0.00     0.167 HD
ENDBRANCH  85  87
ENDBRANCH  84  85
ENDBRANCH  80  83
ENDBRANCH  74  79
BRANCH  75  89
HETATM   89  O   UNL     1      -1.161  -8.852   0.388  1.00  0.00    -0.391 OA
HETATM   90  H   UNL     1      -1.587  -9.656   0.740  1.00  0.00     0.210 HD
ENDBRANCH  75  89
ENDBRANCH  69  70
ENDBRANCH  63  69
BRANCH  64  91
HETATM   91  N   UNL     1      -0.983 -14.362   0.275  1.00  0.00    -0.247 NA
HETATM   92  C   UNL     1      -1.190 -15.700   0.479  1.00  0.00     0.221 C 
HETATM   93  O   UNL     1      -1.133 -16.140   1.625  1.00  0.00    -0.275 OA
HETATM   94  H   UNL     1      -1.051 -13.967   1.206  1.00  0.00     0.131 HD
BRANCH  92  95
HETATM   95  C   UNL     1      -1.776 -16.460  -0.634  1.00  0.00     0.074 C 
HETATM   96  C   UNL     1      -1.142 -17.604  -0.931  1.00  0.00     0.086 C 
BRANCH  96  97
HETATM   97  C   UNL     1      -1.650 -18.528  -1.942  1.00  0.00     0.165 C 
HETATM   98  O   UNL     1      -2.524 -19.366  -1.823  1.00  0.00    -0.647 OA
BRANCH  97  99
HETATM   99  O   UNL     1      -0.981 -18.350  -3.093  1.00  0.00    -0.773 OA
HETATM  100  H   UNL     1      -1.169 -17.419  -3.334  1.00  0.00     0.167 HD
ENDBRANCH  97  99
ENDBRANCH  96  97
ENDBRANCH  92  95
ENDBRANCH  64  91
BRANCH  65 101
HETATM  101  O   UNL     1      -0.134 -14.170  -2.771  1.00  0.00    -0.391 OA
HETATM  102  H   UNL     1      -0.953 -14.701  -2.735  1.00  0.00     0.210 HD
ENDBRANCH  65 101
ENDBRANCH  59  60
ENDBRANCH   5  59
TORSDOF 40
ENDMDL
MODEL 8
REMARK VINA RESULT:      -6.2      6.780     15.152
REMARK WARNING: 32 MAX_TORS EXCEEDED!!!
REMARK  40 active torsions:
REMARK  status: ('A' for Active; 'I' for Inactive)
REMARK    1  A    between atoms: C_1  and  O_44 
REMARK    2  A    between atoms: C_2  and  C_6 
REMARK    3  A    between atoms: C_3  and  O_10 
REMARK    4  A    between atoms: C_4  and  N_12 
REMARK    5  A    between atoms: C_5  and  O_14 
REMARK    6  A    between atoms: C_6  and  O_7 
REMARK    7  A    between atoms: O_14  and  C_27 
REMARK    8  A    between atoms: O_16  and  C_21 
REMARK    9  A    between atoms: C_18  and  C_33 
REMARK   10  A    between atoms: O_20  and  C_33 
REMARK   11  A    between atoms: O_22  and  C_30 
REMARK   12  A    between atoms: O_22  and  C_70 
REMARK   13  A    between atoms: O_23  and  C_24 
REMARK   14  A    between atoms: C_24  and  C_28 
REMARK       I    between atoms: N_29  and  C_32 
REMARK   15  A    between atoms: N_29  and  C_35 
REMARK   16  A    between atoms: C_31  and  C_32 
REMARK   17  A    between atoms: O_38  and  C_43 
REMARK   18  A    between atoms: C_40  and  C_55 
REMARK   19  A    between atoms: O_42  and  C_55 
REMARK   20  A    between atoms: O_44  and  C_52 
REMARK   21  A    between atoms: O_45  and  C_46 
REMARK   22  A    between atoms: C_46  and  C_50 
REMARK   23  A    between atoms: C_49  and  O_87 
REMARK       I    between atoms: N_51  and  C_54 
REMARK   24  A    between atoms: N_51  and  C_57 
REMARK   25  A    between atoms: C_53  and  C_54 
REMARK   26  A    between atoms: O_60  and  C_65 
REMARK   27  A    between atoms: C_62  and  C_76 
REMARK   28  A    between atoms: O_64  and  C_76 
REMARK   29  A    between atoms: O_66  and  C_67 
REMARK   30  A    between atoms: C_67  and  C_71 
REMARK       I    between atoms: N_72  and  C_75 
REMARK   31  A    between atoms: N_72  and  C_78 
REMARK   32  A    between atoms: C_74  and  C_75 
REMARK   33  A    between atoms: O_81  and  C_86 
REMARK   34  A    between atoms: C_83  and  C_98 
REMARK   35  A    between atoms: O_85  and  C_98 
REMARK   36  A    between atoms: O_87  and  C_95 
REMARK   37  A    between atoms: O_88  and  C_89 
REMARK   38  A    between atoms: C_89  and  C_93 
REMARK       I    between atoms: N_94  and  C_97 
REMARK   39  A    between atoms: N_94  and  C_100 
REMARK   40  A    between atoms: C_96  and  C_97 
ROOT
HETATM    1  C   UNL     1      -1.352 -12.469  -1.079  1.00  0.00     0.186 C 
HETATM    2  C   UNL     1      -0.366 -11.527  -0.348  1.00  0.00     0.179 C 
HETATM    3  C   UNL     1      -2.294 -11.652  -1.987  1.00  0.00     0.187 C 
HETATM    4  C   UNL     1      -2.944 -10.532  -1.143  1.00  0.00     0.303 C 
HETATM    5  C   UNL     1      -1.833  -9.586  -0.567  1.00  0.00     0.296 C 
HETATM    6  O   UNL     1      -0.521 -10.139  -0.723  1.00  0.00    -0.349 OA
ENDROOT
BRANCH   1   7
HETATM    7  O   UNL     1      -0.625 -13.429  -1.865  1.00  0.00    -0.348 OA
BRANCH   7   8
HETATM    8  C   UNL     1       0.771 -13.552  -1.565  1.00  0.00     0.286 C 
HETATM    9  O   UNL     1       1.479 -12.807  -2.564  1.00  0.00    -0.349 OA
HETATM   10  C   UNL     1       2.912 -12.787  -2.413  1.00  0.00     0.180 C 
HETATM   11  C   UNL     1       3.534 -14.193  -2.262  1.00  0.00     0.186 C 
HETATM   12  C   UNL     1       2.458 -15.277  -2.442  1.00  0.00     0.177 C 
HETATM   13  C   UNL     1       1.231 -15.042  -1.548  1.00  0.00     0.171 C 
BRANCH  10  14
HETATM   14  C   UNL     1       3.319 -11.854  -1.262  1.00  0.00     0.198 C 
BRANCH  14  15
HETATM   15  O   UNL     1       4.653 -12.116  -0.836  1.00  0.00    -0.398 OA
HETATM   16  H   UNL     1       4.678 -12.044   0.138  1.00  0.00     0.209 HD
ENDBRANCH  14  15
ENDBRANCH  10  14
BRANCH  11  17
HETATM   17  O   UNL     1       4.513 -14.356  -3.300  1.00  0.00    -0.348 OA
BRANCH  17  18
HETATM   18  C   UNL     1       5.651 -15.170  -3.001  1.00  0.00     0.286 C 
HETATM   19  O   UNL     1       5.372 -15.830  -1.772  1.00  0.00    -0.352 OA
HETATM   20  C   UNL     1       6.388 -16.751  -1.334  1.00  0.00     0.150 C 
HETATM   21  C   UNL     1       7.809 -16.351  -1.743  1.00  0.00     0.068 C 
HETATM   22  C   UNL     1       7.934 -14.842  -1.856  1.00  0.00     0.148 C 
HETATM   23  C   UNL     1       6.948 -14.308  -2.917  1.00  0.00     0.168 C 
BRANCH  20  24
HETATM   24  C   UNL     1       6.032 -18.158  -1.832  1.00  0.00     0.196 C 
BRANCH  24  25
HETATM   25  O   UNL     1       4.619 -18.345  -1.811  1.00  0.00    -0.398 OA
HETATM   26  H   UNL     1       4.340 -18.433  -2.744  1.00  0.00     0.209 HD
ENDBRANCH  24  25
ENDBRANCH  20  24
BRANCH  22  27
HETATM   27  O   UNL     1       7.684 -14.272  -0.568  1.00  0.00    -0.393 OA
HETATM   28  H   UNL     1       6.713 -14.246  -0.470  1.00  0.00     0.210 HD
ENDBRANCH  22  27
BRANCH  23  29
HETATM   29  N   UNL     1       6.684 -12.874  -2.738  1.00  0.00    -0.346 N 
HETATM   30  C   UNL     1       6.954 -11.999  -3.761  1.00  0.00     0.241 C 
HETATM   31  O   UNL     1       7.652 -12.286  -4.724  1.00  0.00    -0.269 OA
HETATM   32  H   UNL     1       6.009 -12.630  -2.015  1.00  0.00     0.163 HD
BRANCH  30  33
HETATM   33  C   UNL     1       6.215 -10.725  -3.656  1.00  0.00     0.080 C 
HETATM   34  C   UNL     1       6.520  -9.900  -2.645  1.00  0.00     0.086 C 
BRANCH  34  35
HETATM   35  C   UNL     1       5.920  -8.566  -2.600  1.00  0.00     0.165 C 
HETATM   36  O   UNL     1       5.044  -8.131  -3.321  1.00  0.00    -0.647 OA
BRANCH  35  37
HETATM   37  O   UNL     1       6.503  -7.830  -1.643  1.00  0.00    -0.773 OA
HETATM   38  H   UNL     1       7.114  -8.451  -1.196  1.00  0.00     0.167 HD
ENDBRANCH  35  37
ENDBRANCH  34  35
ENDBRANCH  30  33
ENDBRANCH  23  29
ENDBRANCH  17  18
ENDBRANCH  11  17
BRANCH  12  39
HETATM   39  O   UNL     1       2.066 -15.394  -3.824  1.00  0.00    -0.391 OA
HETATM   40  H   UNL     1       1.102 -15.555  -3.844  1.00  0.00     0.210 HD
ENDBRANCH  12  39
BRANCH  13  41
HETATM   41  N   UNL     1       0.183 -15.996  -1.908  1.00  0.00    -0.346 N 
HETATM   42  C   UNL     1      -0.305 -16.913  -1.020  1.00  0.00     0.241 C 
HETATM   43  O   UNL     1       0.174 -17.099   0.092  1.00  0.00    -0.269 OA
HETATM   44  H   UNL     1      -0.312 -15.818  -2.774  1.00  0.00     0.163 HD
BRANCH  42  45
HETATM   45  C   UNL     1      -1.480 -17.646  -1.534  1.00  0.00     0.080 C 
HETATM   46  C   UNL     1      -2.579 -16.964  -1.876  1.00  0.00     0.086 C 
BRANCH  46  47
HETATM   47  C   UNL     1      -3.721 -17.694  -2.427  1.00  0.00     0.165 C 
HETATM   48  O   UNL     1      -3.774 -18.875  -2.712  1.00  0.00    -0.647 OA
BRANCH  47  49
HETATM   49  O   UNL     1      -4.771 -16.873  -2.580  1.00  0.00    -0.773 OA
HETATM   50  H   UNL     1      -5.229 -16.909  -1.716  1.00  0.00     0.167 HD
ENDBRANCH  47  49
ENDBRANCH  46  47
ENDBRANCH  42  45
ENDBRANCH  13  41
ENDBRANCH   7   8
ENDBRANCH   1   7
BRANCH   2  51
HETATM   51  C   UNL     1      -0.472 -11.672   1.179  1.00  0.00     0.198 C 
BRANCH  51  52
HETATM   52  O   UNL     1       0.749 -11.300   1.810  1.00  0.00    -0.398 OA
HETATM   53  H   UNL     1       1.279 -10.791   1.167  1.00  0.00     0.209 HD
ENDBRANCH  51  52
ENDBRANCH   2  51
BRANCH   3  54
HETATM   54  O   UNL     1      -1.611 -11.104  -3.126  1.00  0.00    -0.391 OA
HETATM   55  H   UNL     1      -0.700 -10.882  -2.849  1.00  0.00     0.210 HD
ENDBRANCH   3  54
BRANCH   4  56
HETATM   56  N   UNL     1      -4.022  -9.877  -1.903  1.00  0.00     0.090 N 
HETATM   57  H   UNL     1      -4.938 -10.164  -1.580  1.00  0.00     0.313 HD
HETATM   58  H   UNL     1      -3.945  -8.866  -1.747  1.00  0.00     0.313 HD
ENDBRANCH   4  56
BRANCH   5  59
HETATM   59  O   UNL     1      -1.834  -8.318  -1.251  1.00  0.00    -0.348 OA
BRANCH  59  60
HETATM   60  C   UNL     1      -0.544  -7.882  -1.723  1.00  0.00     0.186 C 
HETATM   61  C   UNL     1      -0.515  -7.680  -3.261  1.00  0.00     0.179 C 
HETATM   62  O   UNL     1      -0.040  -6.389  -3.697  1.00  0.00    -0.349 OA
HETATM   63  C   UNL     1       1.143  -5.873  -3.077  1.00  0.00     0.281 C 
HETATM   64  C   UNL     1       1.175  -6.104  -1.538  1.00  0.00     0.149 C 
HETATM   65  C   UNL     1      -0.187  -6.573  -0.994  1.00  0.00     0.172 C 
BRANCH  61  66
HETATM   66  C   UNL     1       0.326  -8.763  -3.955  1.00  0.00     0.198 C 
BRANCH  66  67
HETATM   67  O   UNL     1       0.895  -9.651  -3.000  1.00  0.00    -0.398 OA
HETATM   68  H   UNL     1       0.753  -9.267  -2.113  1.00  0.00     0.209 HD
ENDBRANCH  66  67
ENDBRANCH  61  66
BRANCH  63  69
HETATM   69  O   UNL     1       1.254  -4.491  -3.412  1.00  0.00    -0.349 OA
BRANCH  69  70
HETATM   70  C   UNL     1       2.257  -4.160  -4.384  1.00  0.00     0.186 C 
HETATM   71  C   UNL     1       3.025  -2.868  -4.011  1.00  0.00     0.176 C 
HETATM   72  O   UNL     1       4.435  -2.944  -4.356  1.00  0.00    -0.379 OA
HETATM   73  C   UNL     1       4.685  -3.569  -5.621  1.00  0.00     0.196 C 
HETATM   74  C   UNL     1       4.277  -5.053  -5.605  1.00  0.00     0.139 C 
HETATM   75  C   UNL     1       3.270  -5.327  -4.473  1.00  0.00     0.174 C 
BRANCH  71  76
HETATM   76  C   UNL     1       2.446  -1.601  -4.655  1.00  0.00     0.198 C 
BRANCH  76  77
HETATM   77  O   UNL     1       2.821  -0.453  -3.893  1.00  0.00    -0.398 OA
HETATM   78  H   UNL     1       3.739  -0.239  -4.149  1.00  0.00     0.209 HD
ENDBRANCH  76  77
ENDBRANCH  71  76
BRANCH  74  79
HETATM   79  N   UNL     1       5.450  -5.919  -5.479  1.00  0.00    -0.348 N 
HETATM   80  C   UNL     1       5.795  -6.832  -6.438  1.00  0.00     0.241 C 
HETATM   81  O   UNL     1       5.157  -7.025  -7.465  1.00  0.00    -0.269 OA
HETATM   82  H   UNL     1       5.913  -5.927  -4.577  1.00  0.00     0.163 HD
BRANCH  80  83
HETATM   83  C   UNL     1       7.052  -7.549  -6.134  1.00  0.00     0.080 C 
HETATM   84  C   UNL     1       7.673  -8.219  -7.114  1.00  0.00     0.086 C 
BRANCH  84  85
HETATM   85  C   UNL     1       8.971  -8.837  -6.842  1.00  0.00     0.165 C 
HETATM   86  O   UNL     1      10.049  -8.516  -7.304  1.00  0.00    -0.647 OA
BRANCH  85  87
HETATM   87  O   UNL     1       8.829  -9.868  -5.996  1.00  0.00    -0.773 OA
HETATM   88  H   UNL     1       8.097  -9.595  -5.404  1.00  0.00     0.167 HD
ENDBRANCH  85  87
ENDBRANCH  84  85
ENDBRANCH  80  83
ENDBRANCH  74  79
BRANCH  75  89
HETATM   89  O   UNL     1       3.974  -5.515  -3.231  1.00  0.00    -0.391 OA
HETATM   90  H   UNL     1       4.631  -6.225  -3.357  1.00  0.00     0.210 HD
ENDBRANCH  75  89
ENDBRANCH  69  70
ENDBRANCH  63  69
BRANCH  64  91
HETATM   91  N   UNL     1       1.901  -5.136  -0.697  1.00  0.00    -0.247 NA
HETATM   92  C   UNL     1       1.252  -4.313   0.184  1.00  0.00     0.221 C 
HETATM   93  O   UNL     1       1.364  -4.528   1.388  1.00  0.00    -0.275 OA
HETATM   94  H   UNL     1       2.554  -5.642  -0.110  1.00  0.00     0.131 HD
BRANCH  92  95
HETATM   95  C   UNL     1       0.728  -3.048  -0.350  1.00  0.00     0.074 C 
HETATM   96  C   UNL     1       1.294  -1.944   0.161  1.00  0.00     0.086 C 
BRANCH  96  97
HETATM   97  C   UNL     1       0.963  -0.608  -0.331  1.00  0.00     0.165 C 
HETATM   98  O   UNL     1       1.457  -0.007  -1.266  1.00  0.00    -0.647 OA
BRANCH  97  99
HETATM   99  O   UNL     1      -0.002  -0.073   0.434  1.00  0.00    -0.773 OA
HETATM  100  H   UNL     1      -0.079   0.847   0.108  1.00  0.00     0.167 HD
ENDBRANCH  97  99
ENDBRANCH  96  97
ENDBRANCH  92  95
ENDBRANCH  64  91
BRANCH  65 101
HETATM  101  O   UNL     1      -1.198  -5.584  -1.171  1.00  0.00    -0.391 OA
HETATM  102  H   UNL     1      -0.974  -4.838  -0.582  1.00  0.00     0.210 HD
ENDBRANCH  65 101
ENDBRANCH  59  60
ENDBRANCH   5  59
TORSDOF 40
ENDMDL
MODEL 9
REMARK VINA RESULT:      -6.1      6.186     12.602
REMARK WARNING: 32 MAX_TORS EXCEEDED!!!
REMARK  40 active torsions:
REMARK  status: ('A' for Active; 'I' for Inactive)
REMARK    1  A    between atoms: C_1  and  O_44 
REMARK    2  A    between atoms: C_2  and  C_6 
REMARK    3  A    between atoms: C_3  and  O_10 
REMARK    4  A    between atoms: C_4  and  N_12 
REMARK    5  A    between atoms: C_5  and  O_14 
REMARK    6  A    between atoms: C_6  and  O_7 
REMARK    7  A    between atoms: O_14  and  C_27 
REMARK    8  A    between atoms: O_16  and  C_21 
REMARK    9  A    between atoms: C_18  and  C_33 
REMARK   10  A    between atoms: O_20  and  C_33 
REMARK   11  A    between atoms: O_22  and  C_30 
REMARK   12  A    between atoms: O_22  and  C_70 
REMARK   13  A    between atoms: O_23  and  C_24 
REMARK   14  A    between atoms: C_24  and  C_28 
REMARK       I    between atoms: N_29  and  C_32 
REMARK   15  A    between atoms: N_29  and  C_35 
REMARK   16  A    between atoms: C_31  and  C_32 
REMARK   17  A    between atoms: O_38  and  C_43 
REMARK   18  A    between atoms: C_40  and  C_55 
REMARK   19  A    between atoms: O_42  and  C_55 
REMARK   20  A    between atoms: O_44  and  C_52 
REMARK   21  A    between atoms: O_45  and  C_46 
REMARK   22  A    between atoms: C_46  and  C_50 
REMARK   23  A    between atoms: C_49  and  O_87 
REMARK       I    between atoms: N_51  and  C_54 
REMARK   24  A    between atoms: N_51  and  C_57 
REMARK   25  A    between atoms: C_53  and  C_54 
REMARK   26  A    between atoms: O_60  and  C_65 
REMARK   27  A    between atoms: C_62  and  C_76 
REMARK   28  A    between atoms: O_64  and  C_76 
REMARK   29  A    between atoms: O_66  and  C_67 
REMARK   30  A    between atoms: C_67  and  C_71 
REMARK       I    between atoms: N_72  and  C_75 
REMARK   31  A    between atoms: N_72  and  C_78 
REMARK   32  A    between atoms: C_74  and  C_75 
REMARK   33  A    between atoms: O_81  and  C_86 
REMARK   34  A    between atoms: C_83  and  C_98 
REMARK   35  A    between atoms: O_85  and  C_98 
REMARK   36  A    between atoms: O_87  and  C_95 
REMARK   37  A    between atoms: O_88  and  C_89 
REMARK   38  A    between atoms: C_89  and  C_93 
REMARK       I    between atoms: N_94  and  C_97 
REMARK   39  A    between atoms: N_94  and  C_100 
REMARK   40  A    between atoms: C_96  and  C_97 
ROOT
HETATM    1  C   UNL     1      -4.067 -25.171   6.747  1.00  0.00     0.186 C 
HETATM    2  C   UNL     1      -5.063 -24.261   7.507  1.00  0.00     0.179 C 
HETATM    3  C   UNL     1      -4.504 -26.646   6.857  1.00  0.00     0.187 C 
HETATM    4  C   UNL     1      -4.715 -26.988   8.350  1.00  0.00     0.303 C 
HETATM    5  C   UNL     1      -5.836 -26.071   8.954  1.00  0.00     0.296 C 
HETATM    6  O   UNL     1      -6.174 -24.988   8.079  1.00  0.00    -0.349 OA
ENDROOT
BRANCH   1   7
HETATM    7  O   UNL     1      -3.999 -24.782   5.365  1.00  0.00    -0.348 OA
BRANCH   7   8
HETATM    8  C   UNL     1      -2.736 -24.269   4.923  1.00  0.00     0.286 C 
HETATM    9  O   UNL     1      -1.816 -24.436   6.008  1.00  0.00    -0.349 OA
HETATM   10  C   UNL     1      -0.468 -24.000   5.741  1.00  0.00     0.180 C 
HETATM   11  C   UNL     1      -0.385 -22.557   5.194  1.00  0.00     0.186 C 
HETATM   12  C   UNL     1      -1.777 -21.903   5.196  1.00  0.00     0.177 C 
HETATM   13  C   UNL     1      -2.835 -22.771   4.499  1.00  0.00     0.171 C 
BRANCH  10  14
HETATM   14  C   UNL     1       0.251 -25.001   4.825  1.00  0.00     0.198 C 
BRANCH  14  15
HETATM   15  O   UNL     1       1.399 -24.413   4.222  1.00  0.00    -0.398 OA
HETATM   16  H   UNL     1       1.355 -24.581   3.260  1.00  0.00     0.209 HD
ENDBRANCH  14  15
ENDBRANCH  10  14
BRANCH  11  17
HETATM   17  O   UNL     1       0.466 -21.801   6.070  1.00  0.00    -0.348 OA
BRANCH  17  18
HETATM   18  C   UNL     1       1.575 -21.121   5.475  1.00  0.00     0.286 C 
HETATM   19  O   UNL     1       1.440 -21.271   4.066  1.00  0.00    -0.352 OA
HETATM   20  C   UNL     1       2.442 -20.594   3.286  1.00  0.00     0.150 C 
HETATM   21  C   UNL     1       3.810 -20.506   3.971  1.00  0.00     0.068 C 
HETATM   22  C   UNL     1       4.023 -21.684   4.905  1.00  0.00     0.148 C 
HETATM   23  C   UNL     1       2.928 -21.700   5.993  1.00  0.00     0.168 C 
BRANCH  20  24
HETATM   24  C   UNL     1       1.917 -19.207   2.894  1.00  0.00     0.196 C 
BRANCH  24  25
HETATM   25  O   UNL     1       2.829 -18.197   3.316  1.00  0.00    -0.398 OA
HETATM   26  H   UNL     1       3.707 -18.462   2.978  1.00  0.00     0.209 HD
ENDBRANCH  24  25
ENDBRANCH  20  24
BRANCH  22  27
HETATM   27  O   UNL     1       4.012 -22.884   4.127  1.00  0.00    -0.393 OA
HETATM   28  H   UNL     1       3.524 -23.543   4.656  1.00  0.00     0.210 HD
ENDBRANCH  22  27
BRANCH  23  29
HETATM   29  N   UNL     1       2.796 -23.027   6.610  1.00  0.00    -0.346 N 
HETATM   30  C   UNL     1       3.007 -23.176   7.958  1.00  0.00     0.241 C 
HETATM   31  O   UNL     1       3.560 -22.330   8.650  1.00  0.00    -0.269 OA
HETATM   32  H   UNL     1       2.234 -23.705   6.098  1.00  0.00     0.163 HD
BRANCH  30  33
HETATM   33  C   UNL     1       2.383 -24.390   8.520  1.00  0.00     0.080 C 
HETATM   34  C   UNL     1       1.046 -24.442   8.581  1.00  0.00     0.086 C 
BRANCH  34  35
HETATM   35  C   UNL     1       0.393 -25.687   8.985  1.00  0.00     0.165 C 
HETATM   36  O   UNL     1       0.903 -26.635   9.549  1.00  0.00    -0.647 OA
BRANCH  35  37
HETATM   37  O   UNL     1      -0.895 -25.676   8.610  1.00  0.00    -0.773 OA
HETATM   38  H   UNL     1      -1.323 -26.341   9.188  1.00  0.00     0.167 HD
ENDBRANCH  35  37
ENDBRANCH  34  35
ENDBRANCH  30  33
ENDBRANCH  23  29
ENDBRANCH  17  18
ENDBRANCH  11  17
BRANCH  12  39
HETATM   39  O   UNL     1      -2.193 -21.570   6.535  1.00  0.00    -0.391 OA
HETATM   40  H   UNL     1      -1.510 -20.985   6.919  1.00  0.00     0.210 HD
ENDBRANCH  12  39
BRANCH  13  41
HETATM   41  N   UNL     1      -4.156 -22.178   4.703  1.00  0.00    -0.346 N 
HETATM   42  C   UNL     1      -5.110 -22.167   3.725  1.00  0.00     0.241 C 
HETATM   43  O   UNL     1      -4.903 -22.528   2.573  1.00  0.00    -0.269 OA
HETATM   44  H   UNL     1      -4.410 -21.959   5.660  1.00  0.00     0.163 HD
BRANCH  42  45
HETATM   45  C   UNL     1      -6.423 -21.688   4.203  1.00  0.00     0.080 C 
HETATM   46  C   UNL     1      -6.635 -21.563   5.519  1.00  0.00     0.086 C 
BRANCH  46  47
HETATM   47  C   UNL     1      -7.921 -21.045   5.982  1.00  0.00     0.165 C 
HETATM   48  O   UNL     1      -8.213 -20.692   7.109  1.00  0.00    -0.647 OA
BRANCH  47  49
HETATM   49  O   UNL     1      -8.794 -20.983   4.965  1.00  0.00    -0.773 OA
HETATM   50  H   UNL     1      -9.049 -20.038   4.928  1.00  0.00     0.167 HD
ENDBRANCH  47  49
ENDBRANCH  46  47
ENDBRANCH  42  45
ENDBRANCH  13  41
ENDBRANCH   7   8
ENDBRANCH   1   7
BRANCH   2  51
HETATM   51  C   UNL     1      -4.358 -23.437   8.596  1.00  0.00     0.198 C 
BRANCH  51  52
HETATM   52  O   UNL     1      -2.943 -23.558   8.488  1.00  0.00    -0.398 OA
HETATM   53  H   UNL     1      -2.736 -23.884   7.591  1.00  0.00     0.209 HD
ENDBRANCH  51  52
ENDBRANCH   2  51
BRANCH   3  54
HETATM   54  O   UNL     1      -5.692 -26.919   6.097  1.00  0.00    -0.391 OA
HETATM   55  H   UNL     1      -5.887 -27.873   6.179  1.00  0.00     0.210 HD
ENDBRANCH   3  54
BRANCH   4  56
HETATM   56  N   UNL     1      -4.904 -28.439   8.522  1.00  0.00     0.090 N 
HETATM   57  H   UNL     1      -4.389 -28.969   7.829  1.00  0.00     0.313 HD
HETATM   58  H   UNL     1      -4.531 -28.696   9.443  1.00  0.00     0.313 HD
ENDBRANCH   4  56
BRANCH   5  59
HETATM   59  O   UNL     1      -7.047 -26.819   9.176  1.00  0.00    -0.348 OA
BRANCH  59  60
HETATM   60  C   UNL     1      -7.583 -26.724  10.510  1.00  0.00     0.186 C 
HETATM   61  C   UNL     1      -6.486 -26.434  11.568  1.00  0.00     0.179 C 
HETATM   62  O   UNL     1      -6.744 -25.296  12.417  1.00  0.00    -0.349 OA
HETATM   63  C   UNL     1      -8.057 -25.167  12.974  1.00  0.00     0.281 C 
HETATM   64  C   UNL     1      -9.186 -25.502  11.956  1.00  0.00     0.149 C 
HETATM   65  C   UNL     1      -8.652 -25.615  10.516  1.00  0.00     0.172 C 
BRANCH  61  66
HETATM   66  C   UNL     1      -6.230 -27.656  12.464  1.00  0.00     0.198 C 
BRANCH  66  67
HETATM   67  O   UNL     1      -5.888 -28.794  11.680  1.00  0.00    -0.398 OA
HETATM   68  H   UNL     1      -6.515 -28.840  10.932  1.00  0.00     0.209 HD
ENDBRANCH  66  67
ENDBRANCH  61  66
BRANCH  63  69
HETATM   69  O   UNL     1      -8.189 -23.849  13.504  1.00  0.00    -0.349 OA
BRANCH  69  70
HETATM   70  C   UNL     1      -7.882 -23.701  14.897  1.00  0.00     0.186 C 
HETATM   71  C   UNL     1      -6.414 -23.261  15.126  1.00  0.00     0.176 C 
HETATM   72  O   UNL     1      -6.283 -22.330  16.235  1.00  0.00    -0.379 OA
HETATM   73  C   UNL     1      -7.101 -22.662  17.364  1.00  0.00     0.196 C 
HETATM   74  C   UNL     1      -8.598 -22.550  17.026  1.00  0.00     0.139 C 
HETATM   75  C   UNL     1      -8.818 -22.628  15.504  1.00  0.00     0.174 C 
BRANCH  71  76
HETATM   76  C   UNL     1      -5.452 -24.432  15.371  1.00  0.00     0.198 C 
BRANCH  76  77
HETATM   77  O   UNL     1      -6.184 -25.655  15.447  1.00  0.00    -0.398 OA
HETATM   78  H   UNL     1      -6.034 -26.121  14.601  1.00  0.00     0.209 HD
ENDBRANCH  76  77
ENDBRANCH  71  76
BRANCH  74  79
HETATM   79  N   UNL     1      -9.169 -21.317  17.571  1.00  0.00    -0.348 N 
HETATM   80  C   UNL     1     -10.369 -21.293  18.228  1.00  0.00     0.241 C 
HETATM   81  O   UNL     1     -11.078 -22.275  18.402  1.00  0.00    -0.269 OA
HETATM   82  H   UNL     1      -8.715 -20.450  17.306  1.00  0.00     0.163 HD
BRANCH  80  83
HETATM   83  C   UNL     1     -10.719 -19.955  18.752  1.00  0.00     0.080 C 
HETATM   84  C   UNL     1     -11.595 -19.859  19.761  1.00  0.00     0.086 C 
BRANCH  84  85
HETATM   85  C   UNL     1     -11.859 -18.546  20.352  1.00  0.00     0.165 C 
HETATM   86  O   UNL     1     -12.438 -17.611  19.834  1.00  0.00    -0.647 OA
BRANCH  85  87
HETATM   87  O   UNL     1     -11.347 -18.481  21.590  1.00  0.00    -0.773 OA
HETATM   88  H   UNL     1     -11.939 -17.861  22.064  1.00  0.00     0.167 HD
ENDBRANCH  85  87
ENDBRANCH  84  85
ENDBRANCH  80  83
ENDBRANCH  74  79
BRANCH  75  89
HETATM   89  O   UNL     1      -8.595 -21.334  14.913  1.00  0.00    -0.391 OA
HETATM   90  H   UNL     1      -8.468 -21.454  13.953  1.00  0.00     0.210 HD
ENDBRANCH  75  89
ENDBRANCH  69  70
ENDBRANCH  63  69
BRANCH  64  91
HETATM   91  N   UNL     1     -10.489 -24.830  12.105  1.00  0.00    -0.247 NA
HETATM   92  C   UNL     1     -11.557 -25.139  11.307  1.00  0.00     0.221 C 
HETATM   93  O   UNL     1     -12.501 -25.757  11.793  1.00  0.00    -0.275 OA
HETATM   94  H   UNL     1     -10.836 -25.001  13.042  1.00  0.00     0.131 HD
BRANCH  92  95
HETATM   95  C   UNL     1     -11.648 -24.440  10.017  1.00  0.00     0.074 C 
HETATM   96  C   UNL     1     -11.279 -23.150  10.048  1.00  0.00     0.086 C 
BRANCH  96  97
HETATM   97  C   UNL     1     -11.213 -22.336   8.836  1.00  0.00     0.165 C 
HETATM   98  O   UNL     1     -12.068 -21.605   8.375  1.00  0.00    -0.647 OA
BRANCH  97  99
HETATM   99  O   UNL     1     -10.026 -22.518   8.236  1.00  0.00    -0.773 OA
HETATM  100  H   UNL     1      -9.787 -23.441   8.457  1.00  0.00     0.167 HD
ENDBRANCH  97  99
ENDBRANCH  96  97
ENDBRANCH  92  95
ENDBRANCH  64  91
BRANCH  65 101
HETATM  101  O   UNL     1      -8.124 -24.377  10.046  1.00  0.00    -0.391 OA
HETATM  102  H   UNL     1      -8.849 -23.723  10.088  1.00  0.00     0.210 HD
ENDBRANCH  65 101
ENDBRANCH  59  60
ENDBRANCH   5  59
TORSDOF 40
ENDMDL
