MODEL 1
REMARK VINA RESULT:     -10.0      0.000      0.000
REMARK WARNING: 32 MAX_TORS EXCEEDED!!!
REMARK  40 active torsions:
REMARK  status: ('A' for Active; 'I' for Inactive)
REMARK    1  A    between atoms: C_1  and  O_123 
REMARK    2  A    between atoms: C_2  and  C_6 
REMARK    3  A    between atoms: C_3  and  O_10 
REMARK    4  A    between atoms: C_4  and  N_12 
REMARK    5  A    between atoms: C_5  and  O_124 
REMARK    6  A    between atoms: C_6  and  O_7 
REMARK    7  A    between atoms: N_12  and  S_13 
REMARK    8  A    between atoms: S_13  and  C_17 
REMARK    9  A    between atoms: C_20  and  N_23 
REMARK       I    between atoms: N_23  and  C_24 
REMARK   10  A    between atoms: O_29  and  C_33 
REMARK   11  A    between atoms: O_30  and  C_34 
REMARK   12  A    between atoms: C_31  and  C_34 
REMARK   13  A    between atoms: C_36  and  O_124 
REMARK   14  A    between atoms: N_37  and  C_40 
REMARK   15  A    between atoms: C_38  and  O_125 
REMARK   16  A    between atoms: O_42  and  C_46 
REMARK   17  A    between atoms: O_43  and  C_47 
REMARK   18  A    between atoms: C_44  and  C_47 
REMARK   19  A    between atoms: C_49  and  O_125 
REMARK   20  A    between atoms: N_50  and  S_61 
REMARK   21  A    between atoms: N_50  and  C_53 
REMARK   22  A    between atoms: C_51  and  O_126 
REMARK   23  A    between atoms: C_56  and  N_63 
REMARK   24  A    between atoms: C_59  and  S_61 
REMARK       I    between atoms: C_62  and  N_63 
REMARK   25  A    between atoms: O_69  and  C_73 
REMARK   26  A    between atoms: O_70  and  C_74 
REMARK   27  A    between atoms: C_71  and  C_74 
REMARK   28  A    between atoms: C_76  and  O_126 
REMARK   29  A    between atoms: N_77  and  S_88 
REMARK   30  A    between atoms: N_77  and  C_80 
REMARK   31  A    between atoms: C_83  and  N_90 
REMARK   32  A    between atoms: C_86  and  S_88 
REMARK       I    between atoms: C_89  and  N_90 
REMARK   33  A    between atoms: O_96  and  C_100 
REMARK   34  A    between atoms: O_97  and  C_101 
REMARK   35  A    between atoms: C_98  and  C_101 
REMARK   36  A    between atoms: N_104  and  S_115 
REMARK   37  A    between atoms: N_104  and  C_107 
REMARK   38  A    between atoms: C_105  and  O_123 
REMARK   39  A    between atoms: C_110  and  N_117 
REMARK   40  A    between atoms: C_113  and  S_115 
REMARK       I    between atoms: C_116  and  N_117 
ROOT
HETATM    1  C   UNL     1       0.289   6.212  12.358  1.00  0.00     0.179 C 
HETATM    2  C   UNL     1      -1.955   7.331  12.781  1.00  0.00     0.187 C 
HETATM    3  C   UNL     1      -1.046   6.678  11.722  1.00  0.00     0.186 C 
HETATM    4  C   UNL     1      -1.132   5.324  14.166  1.00  0.00     0.296 C 
HETATM    5  O   UNL     1       0.140   5.811  13.727  1.00  0.00    -0.349 OA
HETATM    6  C   UNL     1      -2.304   6.279  13.851  1.00  0.00     0.303 C 
ENDROOT
BRANCH   3   7
HETATM    7  O   UNL     1      -0.926   7.479  10.544  1.00  0.00    -0.349 OA
BRANCH   7   8
HETATM    8  C   UNL     1      -0.192   6.944   9.451  1.00  0.00     0.282 C 
HETATM    9  C   UNL     1       0.092   8.034   8.411  1.00  0.00     0.157 C 
HETATM   10  C   UNL     1       0.695   7.361   7.166  1.00  0.00     0.173 C 
HETATM   11  C   UNL     1      -0.260   6.243   6.687  1.00  0.00     0.186 C 
HETATM   12  C   UNL     1      -0.600   5.256   7.831  1.00  0.00     0.179 C 
HETATM   13  O   UNL     1      -1.102   5.981   8.947  1.00  0.00    -0.349 OA
BRANCH   9  14
HETATM   14  N   UNL     1       1.005   9.040   8.989  1.00  0.00    -0.208 NA
HETATM   15  H   UNL     1       1.220   8.783   9.941  1.00  0.00     0.140 HD
BRANCH  14  16
HETATM   16  S   UNL     1       0.240  10.585   9.104  1.00  0.00     0.215 S 
HETATM   17  O   UNL     1       1.055  11.767   8.232  1.00  0.00    -0.211 OA
HETATM   18  O   UNL     1      -1.349  10.471   8.572  1.00  0.00    -0.211 OA
BRANCH  16  19
HETATM   19  C   UNL     1       0.235  11.051  10.850  1.00  0.00     0.134 C 
HETATM   20  C   UNL     1       0.523  12.546  11.036  1.00  0.00     0.024 C 
HETATM   21  C   UNL     1       0.496  12.951  12.512  1.00  0.00     0.018 C 
HETATM   22  C   UNL     1       1.510  12.140  13.326  1.00  0.00     0.240 C 
HETATM   23  C   UNL     1       1.223  10.640  13.161  1.00  0.00     0.032 C 
HETATM   24  C   UNL     1       1.223  10.223  11.685  1.00  0.00     0.018 C 
BRANCH  22  25
HETATM   25  N   UNL     1       1.467  12.556  14.745  1.00  0.00     0.133 N 
HETATM   26  C   UNL     1       2.515  11.954  15.600  1.00  0.00     0.352 C 
HETATM   27  O   UNL     1       2.397  12.081  16.999  1.00  0.00    -0.189 OA
HETATM   28  C   UNL     1       3.934  12.350  15.176  1.00  0.00     0.085 C 
HETATM   29  H   UNL     1       0.562  12.316  15.125  1.00  0.00     0.320 HD
ENDBRANCH  22  25
ENDBRANCH  16  19
ENDBRANCH  14  16
ENDBRANCH   9  14
BRANCH  10  30
HETATM   30  O   UNL     1       1.984   6.888   7.514  1.00  0.00    -0.391 OA
HETATM   31  H   UNL     1       1.986   5.931   7.437  1.00  0.00     0.210 HD
ENDBRANCH  10  30
BRANCH  11  32
HETATM   32  O   UNL     1       0.168   5.640   5.461  1.00  0.00    -0.349 OA
BRANCH  32  33
HETATM   33  C   UNL     1       0.943   6.437   4.572  1.00  0.00     0.281 C 
HETATM   34  O   UNL     1       2.126   5.664   4.461  1.00  0.00    -0.352 OA
HETATM   35  C   UNL     1       3.111   6.306   3.668  1.00  0.00     0.150 C 
HETATM   36  C   UNL     1       2.587   6.450   2.228  1.00  0.00     0.067 C 
HETATM   37  C   UNL     1       1.240   7.190   2.200  1.00  0.00     0.144 C 
HETATM   38  C   UNL     1       0.248   6.578   3.209  1.00  0.00     0.155 C 
BRANCH  35  39
HETATM   39  C   UNL     1       4.401   5.478   3.694  1.00  0.00     0.196 C 
BRANCH  39  40
HETATM   40  O   UNL     1       4.597   4.929   4.981  1.00  0.00    -0.398 OA
HETATM   41  H   UNL     1       4.721   3.982   4.892  1.00  0.00     0.209 HD
ENDBRANCH  39  40
ENDBRANCH  35  39
BRANCH  37  42
HETATM   42  O   UNL     1       1.433   8.561   2.490  1.00  0.00    -0.394 OA
HETATM   43  H   UNL     1       1.999   8.939   1.813  1.00  0.00     0.210 HD
ENDBRANCH  37  42
BRANCH  38  44
HETATM   44  N   UNL     1      -0.962   7.413   3.358  1.00  0.00    -0.208 NA
HETATM   45  H   UNL     1      -1.051   7.692   4.325  1.00  0.00     0.140 HD
BRANCH  44  46
HETATM   46  S   UNL     1      -2.416   6.551   3.008  1.00  0.00     0.215 S 
HETATM   47  O   UNL     1      -2.192   4.887   2.974  1.00  0.00    -0.211 OA
HETATM   48  O   UNL     1      -3.600   6.954   4.130  1.00  0.00    -0.211 OA
BRANCH  46  49
HETATM   49  C   UNL     1      -2.958   7.083   1.365  1.00  0.00     0.134 C 
HETATM   50  C   UNL     1      -3.671   5.949   0.614  1.00  0.00     0.024 C 
HETATM   51  C   UNL     1      -4.145   6.391  -0.773  1.00  0.00     0.018 C 
HETATM   52  C   UNL     1      -2.980   6.915  -1.625  1.00  0.00     0.240 C 
HETATM   53  C   UNL     1      -2.274   8.058  -0.886  1.00  0.00     0.032 C 
HETATM   54  C   UNL     1      -1.805   7.631   0.511  1.00  0.00     0.018 C 
BRANCH  52  55
HETATM   55  N   UNL     1      -3.441   7.371  -2.954  1.00  0.00     0.133 N 
HETATM   56  C   UNL     1      -3.445   6.311  -3.985  1.00  0.00     0.352 C 
HETATM   57  C   UNL     1      -2.047   5.761  -4.275  1.00  0.00     0.085 C 
HETATM   58  O   UNL     1      -4.117   6.539  -5.204  1.00  0.00    -0.189 OA
HETATM   59  H   UNL     1      -4.376   7.741  -2.863  1.00  0.00     0.320 HD
ENDBRANCH  52  55
ENDBRANCH  46  49
ENDBRANCH  44  46
ENDBRANCH  38  44
ENDBRANCH  32  33
ENDBRANCH  11  32
BRANCH  12  60
HETATM   60  C   UNL     1      -1.698   4.263   7.427  1.00  0.00     0.198 C 
BRANCH  60  61
HETATM   61  O   UNL     1      -1.233   3.426   6.390  1.00  0.00    -0.398 OA
HETATM   62  H   UNL     1      -1.811   2.662   6.332  1.00  0.00     0.209 HD
ENDBRANCH  60  61
ENDBRANCH  12  60
ENDBRANCH   7   8
ENDBRANCH   3   7
BRANCH   1  63
HETATM   63  C   UNL     1       0.955   5.119  11.508  1.00  0.00     0.198 C 
BRANCH  63  64
HETATM   64  O   UNL     1      -0.019   4.207  11.050  1.00  0.00    -0.398 OA
HETATM   65  H   UNL     1      -0.564   3.943  11.794  1.00  0.00     0.209 HD
ENDBRANCH  63  64
ENDBRANCH   1  63
BRANCH   2  66
HETATM   66  O   UNL     1      -1.343   8.448  13.400  1.00  0.00    -0.391 OA
HETATM   67  H   UNL     1      -0.401   8.419  13.216  1.00  0.00     0.210 HD
ENDBRANCH   2  66
BRANCH   6  68
HETATM   68  N   UNL     1      -2.791   6.923  15.084  1.00  0.00     0.090 N 
HETATM   69  H   UNL     1      -2.488   7.887  15.106  1.00  0.00     0.313 HD
HETATM   70  H   UNL     1      -3.801   6.886  15.106  1.00  0.00     0.313 HD
ENDBRANCH   6  68
BRANCH   4  71
HETATM   71  O   UNL     1      -1.259   4.099  13.446  1.00  0.00    -0.348 OA
BRANCH  71  72
HETATM   72  C   UNL     1      -1.049   2.880  14.164  1.00  0.00     0.186 C 
HETATM   73  C   UNL     1      -2.344   2.136  14.559  1.00  0.00     0.179 C 
HETATM   74  O   UNL     1      -1.999   1.055  15.411  1.00  0.00    -0.349 OA
HETATM   75  C   UNL     1      -1.164   0.095  14.786  1.00  0.00     0.282 C 
HETATM   76  C   UNL     1       0.199   0.704  14.419  1.00  0.00     0.157 C 
HETATM   77  C   UNL     1      -0.031   1.922  13.502  1.00  0.00     0.173 C 
BRANCH  73  78
HETATM   78  C   UNL     1      -3.305   3.044  15.337  1.00  0.00     0.198 C 
BRANCH  78  79
HETATM   79  O   UNL     1      -4.457   3.310  14.564  1.00  0.00    -0.398 OA
HETATM   80  H   UNL     1      -4.353   2.887  13.709  1.00  0.00     0.209 HD
ENDBRANCH  78  79
ENDBRANCH  73  78
BRANCH  75  81
HETATM   81  O   UNL     1      -1.027  -0.867  15.826  1.00  0.00    -0.349 OA
BRANCH  81  82
HETATM   82  C   UNL     1      -1.539  -2.182  15.594  1.00  0.00     0.186 C 
HETATM   83  C   UNL     1      -3.018  -2.415  15.990  1.00  0.00     0.176 C 
HETATM   84  O   UNL     1      -3.363  -3.784  15.786  1.00  0.00    -0.379 OA
HETATM   85  C   UNL     1      -3.167  -4.253  14.459  1.00  0.00     0.191 C 
HETATM   86  C   UNL     1      -1.687  -4.147  14.058  1.00  0.00     0.126 C 
HETATM   87  C   UNL     1      -1.252  -2.675  14.161  1.00  0.00     0.170 C 
BRANCH  83  88
HETATM   88  C   UNL     1      -3.255  -2.118  17.478  1.00  0.00     0.198 C 
BRANCH  88  89
HETATM   89  O   UNL     1      -3.228  -0.725  17.706  1.00  0.00    -0.398 OA
HETATM   90  H   UNL     1      -3.764  -0.298  17.035  1.00  0.00     0.209 HD
ENDBRANCH  88  89
ENDBRANCH  83  88
BRANCH  86  91
HETATM   91  N   UNL     1      -1.482  -4.702  12.702  1.00  0.00    -0.210 NA
HETATM   92  H   UNL     1      -2.377  -4.763  12.239  1.00  0.00     0.140 HD
BRANCH  91  93
HETATM   93  S   UNL     1      -0.897  -6.330  12.768  1.00  0.00     0.215 S 
HETATM   94  O   UNL     1       0.306  -6.540  13.922  1.00  0.00    -0.211 OA
HETATM   95  O   UNL     1      -2.160  -7.397  13.070  1.00  0.00    -0.211 OA
BRANCH  93  96
HETATM   96  C   UNL     1      -0.194  -6.747  11.155  1.00  0.00     0.134 C 
HETATM   97  C   UNL     1      -0.673  -5.798  10.048  1.00  0.00     0.024 C 
HETATM   98  C   UNL     1      -0.037  -6.151   8.700  1.00  0.00     0.018 C 
HETATM   99  C   UNL     1      -0.337  -7.601   8.291  1.00  0.00     0.240 C 
HETATM  100  C   UNL     1       0.143  -8.555   9.391  1.00  0.00     0.032 C 
HETATM  101  C   UNL     1      -0.468  -8.204  10.754  1.00  0.00     0.018 C 
BRANCH  99 102
HETATM  102  N   UNL     1       0.305  -7.942   7.005  1.00  0.00     0.133 N 
HETATM  103  C   UNL     1      -0.089  -7.053   5.892  1.00  0.00     0.352 C 
HETATM  104  C   UNL     1      -1.568  -7.199   5.530  1.00  0.00     0.085 C 
HETATM  105  O   UNL     1       0.681  -7.048   4.710  1.00  0.00    -0.189 OA
HETATM  106  H   UNL     1       1.307  -7.899   7.121  1.00  0.00     0.320 HD
ENDBRANCH  99 102
ENDBRANCH  93  96
ENDBRANCH  91  93
ENDBRANCH  86  91
BRANCH  87 107
HETATM  107  O   UNL     1      -1.932  -1.937  13.164  1.00  0.00    -0.391 OA
HETATM  108  H   UNL     1      -1.903  -1.007  13.401  1.00  0.00     0.210 HD
ENDBRANCH  87 107
ENDBRANCH  81  82
ENDBRANCH  75  81
BRANCH  76 109
HETATM  109  N   UNL     1       1.030  -0.318  13.753  1.00  0.00    -0.208 NA
HETATM  110  H   UNL     1       0.715  -1.236  14.032  1.00  0.00     0.140 HD
BRANCH 109 111
HETATM  111  S   UNL     1       2.681  -0.254  14.246  1.00  0.00     0.215 S 
HETATM  112  O   UNL     1       3.686  -1.190  13.277  1.00  0.00    -0.211 OA
HETATM  113  O   UNL     1       3.196   1.345  14.244  1.00  0.00    -0.211 OA
BRANCH 111 114
HETATM  114  C   UNL     1       2.738  -0.887  15.940  1.00  0.00     0.134 C 
HETATM  115  C   UNL     1       2.127  -2.291  16.041  1.00  0.00     0.024 C 
HETATM  116  C   UNL     1       2.172  -2.831  17.474  1.00  0.00     0.018 C 
HETATM  117  C   UNL     1       1.447  -1.897  18.448  1.00  0.00     0.240 C 
HETATM  118  C   UNL     1       2.057  -0.489  18.371  1.00  0.00     0.032 C 
HETATM  119  C   UNL     1       2.048   0.057  16.937  1.00  0.00     0.018 C 
BRANCH 117 120
HETATM  120  N   UNL     1       1.523  -2.442  19.819  1.00  0.00     0.133 N 
HETATM  121  C   UNL     1       0.220  -2.486  20.516  1.00  0.00     0.352 C 
HETATM  122  C   UNL     1      -0.667  -3.619  19.989  1.00  0.00     0.085 C 
HETATM  123  O   UNL     1       0.201  -2.503  21.927  1.00  0.00    -0.189 OA
HETATM  124  H   UNL     1       2.166  -1.875  20.355  1.00  0.00     0.320 HD
ENDBRANCH 117 120
ENDBRANCH 111 114
ENDBRANCH 109 111
ENDBRANCH  76 109
BRANCH  77 125
HETATM  125  O   UNL     1      -0.459   1.436  12.244  1.00  0.00    -0.391 OA
HETATM  126  H   UNL     1       0.074   0.671  12.016  1.00  0.00     0.210 HD
ENDBRANCH  77 125
ENDBRANCH  71  72
ENDBRANCH   4  71
TORSDOF 40
ENDMDL
MODEL 2
REMARK VINA RESULT:      -9.6      3.441      5.848
REMARK WARNING: 32 MAX_TORS EXCEEDED!!!
REMARK  40 active torsions:
REMARK  status: ('A' for Active; 'I' for Inactive)
REMARK    1  A    between atoms: C_1  and  O_123 
REMARK    2  A    between atoms: C_2  and  C_6 
REMARK    3  A    between atoms: C_3  and  O_10 
REMARK    4  A    between atoms: C_4  and  N_12 
REMARK    5  A    between atoms: C_5  and  O_124 
REMARK    6  A    between atoms: C_6  and  O_7 
REMARK    7  A    between atoms: N_12  and  S_13 
REMARK    8  A    between atoms: S_13  and  C_17 
REMARK    9  A    between atoms: C_20  and  N_23 
REMARK       I    between atoms: N_23  and  C_24 
REMARK   10  A    between atoms: O_29  and  C_33 
REMARK   11  A    between atoms: O_30  and  C_34 
REMARK   12  A    between atoms: C_31  and  C_34 
REMARK   13  A    between atoms: C_36  and  O_124 
REMARK   14  A    between atoms: N_37  and  C_40 
REMARK   15  A    between atoms: C_38  and  O_125 
REMARK   16  A    between atoms: O_42  and  C_46 
REMARK   17  A    between atoms: O_43  and  C_47 
REMARK   18  A    between atoms: C_44  and  C_47 
REMARK   19  A    between atoms: C_49  and  O_125 
REMARK   20  A    between atoms: N_50  and  S_61 
REMARK   21  A    between atoms: N_50  and  C_53 
REMARK   22  A    between atoms: C_51  and  O_126 
REMARK   23  A    between atoms: C_56  and  N_63 
REMARK   24  A    between atoms: C_59  and  S_61 
REMARK       I    between atoms: C_62  and  N_63 
REMARK   25  A    between atoms: O_69  and  C_73 
REMARK   26  A    between atoms: O_70  and  C_74 
REMARK   27  A    between atoms: C_71  and  C_74 
REMARK   28  A    between atoms: C_76  and  O_126 
REMARK   29  A    between atoms: N_77  and  S_88 
REMARK   30  A    between atoms: N_77  and  C_80 
REMARK   31  A    between atoms: C_83  and  N_90 
REMARK   32  A    between atoms: C_86  and  S_88 
REMARK       I    between atoms: C_89  and  N_90 
REMARK   33  A    between atoms: O_96  and  C_100 
REMARK   34  A    between atoms: O_97  and  C_101 
REMARK   35  A    between atoms: C_98  and  C_101 
REMARK   36  A    between atoms: N_104  and  S_115 
REMARK   37  A    between atoms: N_104  and  C_107 
REMARK   38  A    between atoms: C_105  and  O_123 
REMARK   39  A    between atoms: C_110  and  N_117 
REMARK   40  A    between atoms: C_113  and  S_115 
REMARK       I    between atoms: C_116  and  N_117 
ROOT
HETATM    1  C   UNL     1       1.852   7.732  13.181  1.00  0.00     0.179 C 
HETATM    2  C   UNL     1      -0.274   7.706  11.785  1.00  0.00     0.187 C 
HETATM    3  C   UNL     1       1.267   7.737  11.745  1.00  0.00     0.186 C 
HETATM    4  C   UNL     1       0.193   5.963  13.621  1.00  0.00     0.296 C 
HETATM    5  O   UNL     1       1.031   7.014  14.112  1.00  0.00    -0.349 OA
HETATM    6  C   UNL     1      -0.727   6.396  12.458  1.00  0.00     0.303 C 
ENDROOT
BRANCH   3   7
HETATM    7  O   UNL     1       1.764   8.755  10.874  1.00  0.00    -0.349 OA
BRANCH   7   8
HETATM    8  C   UNL     1       2.072   8.389   9.536  1.00  0.00     0.282 C 
HETATM    9  C   UNL     1       0.913   8.755   8.601  1.00  0.00     0.157 C 
HETATM   10  C   UNL     1       1.207   8.150   7.217  1.00  0.00     0.173 C 
HETATM   11  C   UNL     1       1.456   6.632   7.375  1.00  0.00     0.186 C 
HETATM   12  C   UNL     1       2.550   6.342   8.431  1.00  0.00     0.179 C 
HETATM   13  O   UNL     1       2.209   6.983   9.654  1.00  0.00    -0.349 OA
BRANCH   9  14
HETATM   14  N   UNL     1       0.773  10.223   8.541  1.00  0.00    -0.208 NA
HETATM   15  H   UNL     1       1.486  10.647   9.119  1.00  0.00     0.140 HD
BRANCH  14  16
HETATM   16  S   UNL     1      -0.725  10.738   9.227  1.00  0.00     0.215 S 
HETATM   17  O   UNL     1      -1.953   9.615   8.994  1.00  0.00    -0.211 OA
HETATM   18  O   UNL     1      -0.523  11.037  10.868  1.00  0.00    -0.211 OA
BRANCH  16  19
HETATM   19  C   UNL     1      -1.188  12.282   8.409  1.00  0.00     0.134 C 
HETATM   20  C   UNL     1      -1.947  13.217   9.357  1.00  0.00     0.024 C 
HETATM   21  C   UNL     1      -2.320  14.537   8.676  1.00  0.00     0.018 C 
HETATM   22  C   UNL     1      -3.172  14.292   7.426  1.00  0.00     0.240 C 
HETATM   23  C   UNL     1      -2.416  13.367   6.460  1.00  0.00     0.032 C 
HETATM   24  C   UNL     1      -2.014  12.049   7.135  1.00  0.00     0.018 C 
BRANCH  22  25
HETATM   25  N   UNL     1      -3.523  15.582   6.792  1.00  0.00     0.133 N 
HETATM   26  C   UNL     1      -4.372  15.469   5.586  1.00  0.00     0.352 C 
HETATM   27  O   UNL     1      -4.539  16.608   4.771  1.00  0.00    -0.189 OA
HETATM   28  C   UNL     1      -5.745  14.852   5.876  1.00  0.00     0.085 C 
HETATM   29  H   UNL     1      -2.670  16.062   6.544  1.00  0.00     0.320 HD
ENDBRANCH  22  25
ENDBRANCH  16  19
ENDBRANCH  14  16
ENDBRANCH   9  14
BRANCH  10  30
HETATM   30  O   UNL     1       2.311   8.847   6.668  1.00  0.00    -0.391 OA
HETATM   31  H   UNL     1       2.988   8.923   7.345  1.00  0.00     0.210 HD
ENDBRANCH  10  30
BRANCH  11  32
HETATM   32  O   UNL     1       1.622   5.967   6.118  1.00  0.00    -0.349 OA
BRANCH  32  33
HETATM   33  C   UNL     1       0.445   5.566   5.425  1.00  0.00     0.281 C 
HETATM   34  O   UNL     1      -0.560   5.880   6.373  1.00  0.00    -0.352 OA
HETATM   35  C   UNL     1      -1.850   5.487   5.934  1.00  0.00     0.150 C 
HETATM   36  C   UNL     1      -2.221   6.287   4.672  1.00  0.00     0.067 C 
HETATM   37  C   UNL     1      -1.154   6.120   3.577  1.00  0.00     0.144 C 
HETATM   38  C   UNL     1       0.260   6.378   4.134  1.00  0.00     0.155 C 
BRANCH  35  39
HETATM   39  C   UNL     1      -2.866   5.742   7.053  1.00  0.00     0.196 C 
BRANCH  39  40
HETATM   40  O   UNL     1      -2.663   7.026   7.606  1.00  0.00    -0.398 OA
HETATM   41  H   UNL     1      -3.512   7.372   7.891  1.00  0.00     0.209 HD
ENDBRANCH  39  40
ENDBRANCH  35  39
BRANCH  37  42
HETATM   42  O   UNL     1      -1.221   4.818   3.027  1.00  0.00    -0.394 OA
HETATM   43  H   UNL     1      -2.080   4.443   3.237  1.00  0.00     0.210 HD
ENDBRANCH  37  42
BRANCH  38  44
HETATM   44  N   UNL     1       1.306   6.001   3.162  1.00  0.00    -0.208 NA
HETATM   45  H   UNL     1       2.213   6.131   3.587  1.00  0.00     0.140 HD
BRANCH  44  46
HETATM   46  S   UNL     1       1.321   7.020   1.768  1.00  0.00     0.215 S 
HETATM   47  O   UNL     1       0.272   6.491   0.567  1.00  0.00    -0.211 OA
HETATM   48  O   UNL     1       0.946   8.596   2.212  1.00  0.00    -0.211 OA
BRANCH  46  49
HETATM   49  C   UNL     1       3.005   6.980   1.106  1.00  0.00     0.134 C 
HETATM   50  C   UNL     1       3.047   6.333  -0.285  1.00  0.00     0.024 C 
HETATM   51  C   UNL     1       4.466   6.305  -0.860  1.00  0.00     0.018 C 
HETATM   52  C   UNL     1       5.437   5.570   0.075  1.00  0.00     0.240 C 
HETATM   53  C   UNL     1       5.411   6.223   1.462  1.00  0.00     0.032 C 
HETATM   54  C   UNL     1       3.992   6.268   2.044  1.00  0.00     0.018 C 
BRANCH  52  55
HETATM   55  N   UNL     1       6.814   5.569  -0.465  1.00  0.00     0.133 N 
HETATM   56  C   UNL     1       7.213   4.290  -1.091  1.00  0.00     0.352 C 
HETATM   57  C   UNL     1       7.231   3.125  -0.098  1.00  0.00     0.085 C 
HETATM   58  O   UNL     1       8.381   4.245  -1.880  1.00  0.00    -0.189 OA
HETATM   59  H   UNL     1       6.894   6.306  -1.150  1.00  0.00     0.320 HD
ENDBRANCH  52  55
ENDBRANCH  46  49
ENDBRANCH  44  46
ENDBRANCH  38  44
ENDBRANCH  32  33
ENDBRANCH  11  32
BRANCH  12  60
HETATM   60  C   UNL     1       2.666   4.843   8.743  1.00  0.00     0.198 C 
BRANCH  60  61
HETATM   61  O   UNL     1       4.025   4.477   8.846  1.00  0.00    -0.398 OA
HETATM   62  H   UNL     1       4.349   4.747   9.708  1.00  0.00     0.209 HD
ENDBRANCH  60  61
ENDBRANCH  12  60
ENDBRANCH   7   8
ENDBRANCH   3   7
BRANCH   1  63
HETATM   63  C   UNL     1       3.303   7.227  13.184  1.00  0.00     0.198 C 
BRANCH  63  64
HETATM   64  O   UNL     1       3.633   6.704  11.916  1.00  0.00    -0.398 OA
HETATM   65  H   UNL     1       3.730   5.752  11.995  1.00  0.00     0.209 HD
ENDBRANCH  63  64
ENDBRANCH   1  63
BRANCH   2  66
HETATM   66  O   UNL     1      -0.815   8.809  12.491  1.00  0.00    -0.391 OA
HETATM   67  H   UNL     1      -1.768   8.803  12.381  1.00  0.00     0.210 HD
ENDBRANCH   2  66
BRANCH   6  68
HETATM   68  N   UNL     1      -2.125   6.493  12.913  1.00  0.00     0.090 N 
HETATM   69  H   UNL     1      -2.293   7.410  13.301  1.00  0.00     0.313 HD
HETATM   70  H   UNL     1      -2.745   6.339  12.130  1.00  0.00     0.313 HD
ENDBRANCH   6  68
BRANCH   4  71
HETATM   71  O   UNL     1       1.140   4.987  13.191  1.00  0.00    -0.348 OA
BRANCH  71  72
HETATM   72  C   UNL     1       0.717   3.621  13.154  1.00  0.00     0.186 C 
HETATM   73  C   UNL     1       1.853   2.604  12.898  1.00  0.00     0.179 C 
HETATM   74  O   UNL     1       1.274   1.322  12.708  1.00  0.00    -0.349 OA
HETATM   75  C   UNL     1       0.568   0.853  13.844  1.00  0.00     0.282 C 
HETATM   76  C   UNL     1      -0.646   1.747  14.148  1.00  0.00     0.157 C 
HETATM   77  C   UNL     1      -0.158   3.195  14.355  1.00  0.00     0.173 C 
BRANCH  73  78
HETATM   78  C   UNL     1       2.644   2.944  11.628  1.00  0.00     0.198 C 
BRANCH  78  79
HETATM   79  O   UNL     1       3.602   3.944  11.904  1.00  0.00    -0.398 OA
HETATM   80  H   UNL     1       3.154   4.792  11.937  1.00  0.00     0.209 HD
ENDBRANCH  78  79
ENDBRANCH  73  78
BRANCH  75  81
HETATM   81  O   UNL     1       0.153  -0.432  13.396  1.00  0.00    -0.349 OA
BRANCH  81  82
HETATM   82  C   UNL     1       0.590  -1.574  14.139  1.00  0.00     0.186 C 
HETATM   83  C   UNL     1       1.761  -1.336  15.123  1.00  0.00     0.176 C 
HETATM   84  O   UNL     1       2.145  -2.572  15.724  1.00  0.00    -0.379 OA
HETATM   85  C   UNL     1       1.100  -3.245  16.414  1.00  0.00     0.191 C 
HETATM   86  C   UNL     1      -0.043  -3.605  15.450  1.00  0.00     0.126 C 
HETATM   87  C   UNL     1      -0.583  -2.309  14.820  1.00  0.00     0.170 C 
BRANCH  83  88
HETATM   88  C   UNL     1       3.002  -0.795  14.399  1.00  0.00     0.198 C 
BRANCH  88  89
HETATM   89  O   UNL     1       3.007  -1.224  13.055  1.00  0.00    -0.398 OA
HETATM   90  H   UNL     1       3.749  -1.819  12.929  1.00  0.00     0.209 HD
ENDBRANCH  88  89
ENDBRANCH  83  88
BRANCH  86  91
HETATM   91  N   UNL     1      -1.093  -4.367  16.161  1.00  0.00    -0.210 NA
HETATM   92  H   UNL     1      -0.648  -5.015  16.795  1.00  0.00     0.140 HD
BRANCH  91  93
HETATM   93  S   UNL     1      -2.004  -5.354  15.071  1.00  0.00     0.215 S 
HETATM   94  O   UNL     1      -2.612  -6.738  15.805  1.00  0.00    -0.211 OA
HETATM   95  O   UNL     1      -3.266  -4.475  14.395  1.00  0.00    -0.211 OA
BRANCH  93  96
HETATM   96  C   UNL     1      -0.910  -5.877  13.729  1.00  0.00     0.134 C 
HETATM   97  C   UNL     1      -1.562  -5.712  12.349  1.00  0.00     0.024 C 
HETATM   98  C   UNL     1      -0.605  -6.129  11.229  1.00  0.00     0.018 C 
HETATM   99  C   UNL     1      -0.131  -7.581  11.396  1.00  0.00     0.240 C 
HETATM  100  C   UNL     1       0.526  -7.752  12.771  1.00  0.00     0.032 C 
HETATM  101  C   UNL     1      -0.412  -7.319  13.906  1.00  0.00     0.018 C 
BRANCH  99 102
HETATM  102  N   UNL     1       0.816  -7.965  10.329  1.00  0.00     0.133 N 
HETATM  103  C   UNL     1       0.468  -7.414   9.003  1.00  0.00     0.352 C 
HETATM  104  C   UNL     1      -0.839  -7.995   8.459  1.00  0.00     0.085 C 
HETATM  105  O   UNL     1       1.439  -7.418   7.979  1.00  0.00    -0.189 OA
HETATM  106  H   UNL     1       1.740  -7.647  10.585  1.00  0.00     0.320 HD
ENDBRANCH  99 102
ENDBRANCH  93  96
ENDBRANCH  91  93
ENDBRANCH  86  91
BRANCH  87 107
HETATM  107  O   UNL     1      -1.213  -1.549  15.834  1.00  0.00    -0.391 OA
HETATM  108  H   UNL     1      -0.764  -1.720  16.665  1.00  0.00     0.210 HD
ENDBRANCH  87 107
ENDBRANCH  81  82
ENDBRANCH  75  81
BRANCH  76 109
HETATM  109  N   UNL     1      -1.341   1.240  15.347  1.00  0.00    -0.208 NA
HETATM  110  H   UNL     1      -1.787   0.361  15.126  1.00  0.00     0.140 HD
BRANCH 109 111
HETATM  111  S   UNL     1      -2.629   2.270  15.851  1.00  0.00     0.215 S 
HETATM  112  O   UNL     1      -2.103   3.549  16.807  1.00  0.00    -0.211 OA
HETATM  113  O   UNL     1      -3.435   2.850  14.496  1.00  0.00    -0.211 OA
BRANCH 111 114
HETATM  114  C   UNL     1      -3.764   1.242  16.814  1.00  0.00     0.134 C 
HETATM  115  C   UNL     1      -4.120  -0.055  16.075  1.00  0.00     0.024 C 
HETATM  116  C   UNL     1      -5.082  -0.928  16.887  1.00  0.00     0.018 C 
HETATM  117  C   UNL     1      -6.372  -0.175  17.225  1.00  0.00     0.240 C 
HETATM  118  C   UNL     1      -6.036   1.120  17.979  1.00  0.00     0.032 C 
HETATM  119  C   UNL     1      -5.049   1.995  17.196  1.00  0.00     0.018 C 
BRANCH 117 120
HETATM  120  N   UNL     1      -7.268  -1.042  18.018  1.00  0.00     0.133 N 
HETATM  121  C   UNL     1      -8.355  -0.309  18.701  1.00  0.00     0.352 C 
HETATM  122  C   UNL     1      -9.450   0.126  17.720  1.00  0.00     0.085 C 
HETATM  123  O   UNL     1      -8.958  -0.886  19.839  1.00  0.00    -0.189 OA
HETATM  124  H   UNL     1      -6.715  -1.531  18.707  1.00  0.00     0.320 HD
ENDBRANCH 117 120
ENDBRANCH 111 114
ENDBRANCH 109 111
ENDBRANCH  76 109
BRANCH  77 125
HETATM  125  O   UNL     1       0.530   3.242  15.591  1.00  0.00    -0.391 OA
HETATM  126  H   UNL     1       0.677   4.161  15.822  1.00  0.00     0.210 HD
ENDBRANCH  77 125
ENDBRANCH  71  72
ENDBRANCH   4  71
TORSDOF 40
ENDMDL
MODEL 3
REMARK VINA RESULT:      -9.6      5.852     10.317
REMARK WARNING: 32 MAX_TORS EXCEEDED!!!
REMARK  40 active torsions:
REMARK  status: ('A' for Active; 'I' for Inactive)
REMARK    1  A    between atoms: C_1  and  O_123 
REMARK    2  A    between atoms: C_2  and  C_6 
REMARK    3  A    between atoms: C_3  and  O_10 
REMARK    4  A    between atoms: C_4  and  N_12 
REMARK    5  A    between atoms: C_5  and  O_124 
REMARK    6  A    between atoms: C_6  and  O_7 
REMARK    7  A    between atoms: N_12  and  S_13 
REMARK    8  A    between atoms: S_13  and  C_17 
REMARK    9  A    between atoms: C_20  and  N_23 
REMARK       I    between atoms: N_23  and  C_24 
REMARK   10  A    between atoms: O_29  and  C_33 
REMARK   11  A    between atoms: O_30  and  C_34 
REMARK   12  A    between atoms: C_31  and  C_34 
REMARK   13  A    between atoms: C_36  and  O_124 
REMARK   14  A    between atoms: N_37  and  C_40 
REMARK   15  A    between atoms: C_38  and  O_125 
REMARK   16  A    between atoms: O_42  and  C_46 
REMARK   17  A    between atoms: O_43  and  C_47 
REMARK   18  A    between atoms: C_44  and  C_47 
REMARK   19  A    between atoms: C_49  and  O_125 
REMARK   20  A    between atoms: N_50  and  S_61 
REMARK   21  A    between atoms: N_50  and  C_53 
REMARK   22  A    between atoms: C_51  and  O_126 
REMARK   23  A    between atoms: C_56  and  N_63 
REMARK   24  A    between atoms: C_59  and  S_61 
REMARK       I    between atoms: C_62  and  N_63 
REMARK   25  A    between atoms: O_69  and  C_73 
REMARK   26  A    between atoms: O_70  and  C_74 
REMARK   27  A    between atoms: C_71  and  C_74 
REMARK   28  A    between atoms: C_76  and  O_126 
REMARK   29  A    between atoms: N_77  and  S_88 
REMARK   30  A    between atoms: N_77  and  C_80 
REMARK   31  A    between atoms: C_83  and  N_90 
REMARK   32  A    between atoms: C_86  and  S_88 
REMARK       I    between atoms: C_89  and  N_90 
REMARK   33  A    between atoms: O_96  and  C_100 
REMARK   34  A    between atoms: O_97  and  C_101 
REMARK   35  A    between atoms: C_98  and  C_101 
REMARK   36  A    between atoms: N_104  and  S_115 
REMARK   37  A    between atoms: N_104  and  C_107 
REMARK   38  A    between atoms: C_105  and  O_123 
REMARK   39  A    between atoms: C_110  and  N_117 
REMARK   40  A    between atoms: C_113  and  S_115 
REMARK       I    between atoms: C_116  and  N_117 
ROOT
HETATM    1  C   UNL     1       0.096   5.313  11.982  1.00  0.00     0.179 C 
HETATM    2  C   UNL     1       1.948   5.984  10.373  1.00  0.00     0.187 C 
HETATM    3  C   UNL     1       0.487   6.232  10.796  1.00  0.00     0.186 C 
HETATM    4  C   UNL     1       2.277   5.967  12.927  1.00  0.00     0.296 C 
HETATM    5  O   UNL     1       1.203   5.024  12.848  1.00  0.00    -0.349 OA
HETATM    6  C   UNL     1       2.872   6.344  11.552  1.00  0.00     0.303 C 
ENDROOT
BRANCH   3   7
HETATM    7  O   UNL     1      -0.407   6.219   9.680  1.00  0.00    -0.349 OA
BRANCH   7   8
HETATM    8  C   UNL     1       0.155   6.341   8.380  1.00  0.00     0.282 C 
HETATM    9  C   UNL     1      -0.054   7.759   7.836  1.00  0.00     0.157 C 
HETATM   10  C   UNL     1       0.378   7.773   6.360  1.00  0.00     0.173 C 
HETATM   11  C   UNL     1      -0.392   6.668   5.600  1.00  0.00     0.186 C 
HETATM   12  C   UNL     1      -0.235   5.289   6.287  1.00  0.00     0.179 C 
HETATM   13  O   UNL     1      -0.612   5.396   7.654  1.00  0.00    -0.349 OA
BRANCH   9  14
HETATM   14  N   UNL     1       0.723   8.717   8.647  1.00  0.00    -0.208 NA
HETATM   15  H   UNL     1       0.648   8.463   9.622  1.00  0.00     0.140 HD
BRANCH  14  16
HETATM   16  S   UNL     1       0.055  10.307   8.547  1.00  0.00     0.215 S 
HETATM   17  O   UNL     1       0.788  11.233   7.351  1.00  0.00    -0.211 OA
HETATM   18  O   UNL     1      -1.598  10.210   8.267  1.00  0.00    -0.211 OA
BRANCH  16  19
HETATM   19  C   UNL     1       0.327  11.104  10.146  1.00  0.00     0.134 C 
HETATM   20  C   UNL     1       0.543  10.074  11.261  1.00  0.00     0.024 C 
HETATM   21  C   UNL     1       0.799  10.745  12.613  1.00  0.00     0.018 C 
HETATM   22  C   UNL     1      -0.362  11.666  13.001  1.00  0.00     0.240 C 
HETATM   23  C   UNL     1      -0.579  12.714  11.898  1.00  0.00     0.032 C 
HETATM   24  C   UNL     1      -0.814  12.058  10.532  1.00  0.00     0.018 C 
BRANCH  22  25
HETATM   25  N   UNL     1      -0.093  12.295  14.312  1.00  0.00     0.133 N 
HETATM   26  C   UNL     1      -1.153  12.098  15.325  1.00  0.00     0.352 C 
HETATM   27  O   UNL     1      -1.111  12.870  16.504  1.00  0.00    -0.189 OA
HETATM   28  C   UNL     1      -1.362  10.625  15.694  1.00  0.00     0.085 C 
HETATM   29  H   UNL     1       0.042  13.287  14.174  1.00  0.00     0.320 HD
ENDBRANCH  22  25
ENDBRANCH  16  19
ENDBRANCH  14  16
ENDBRANCH   9  14
BRANCH  10  30
HETATM   30  O   UNL     1       1.784   7.605   6.323  1.00  0.00    -0.391 OA
HETATM   31  H   UNL     1       2.033   6.981   7.008  1.00  0.00     0.210 HD
ENDBRANCH  10  30
BRANCH  11  32
HETATM   32  O   UNL     1      -0.136   6.688   4.192  1.00  0.00    -0.349 OA
BRANCH  32  33
HETATM   33  C   UNL     1      -0.795   5.716   3.389  1.00  0.00     0.281 C 
HETATM   34  O   UNL     1      -2.094   6.273   3.284  1.00  0.00    -0.352 OA
HETATM   35  C   UNL     1      -2.984   5.424   2.577  1.00  0.00     0.150 C 
HETATM   36  C   UNL     1      -2.493   5.271   1.126  1.00  0.00     0.067 C 
HETATM   37  C   UNL     1      -1.042   4.764   1.083  1.00  0.00     0.144 C 
HETATM   38  C   UNL     1      -0.133   5.599   2.007  1.00  0.00     0.155 C 
BRANCH  35  39
HETATM   39  C   UNL     1      -4.393   6.027   2.610  1.00  0.00     0.196 C 
BRANCH  39  40
HETATM   40  O   UNL     1      -5.279   5.229   1.854  1.00  0.00    -0.398 OA
HETATM   41  H   UNL     1      -5.815   5.805   1.305  1.00  0.00     0.209 HD
ENDBRANCH  39  40
ENDBRANCH  35  39
BRANCH  37  42
HETATM   42  O   UNL     1      -0.991   3.403   1.465  1.00  0.00    -0.394 OA
HETATM   43  H   UNL     1      -1.056   3.352   2.421  1.00  0.00     0.210 HD
ENDBRANCH  37  42
BRANCH  38  44
HETATM   44  N   UNL     1       1.204   4.988   2.153  1.00  0.00    -0.208 NA
HETATM   45  H   UNL     1       1.247   4.498   3.035  1.00  0.00     0.140 HD
BRANCH  44  46
HETATM   46  S   UNL     1       2.469   6.160   2.235  1.00  0.00     0.215 S 
HETATM   47  O   UNL     1       1.952   7.703   1.819  1.00  0.00    -0.211 OA
HETATM   48  O   UNL     1       3.138   6.168   3.775  1.00  0.00    -0.211 OA
BRANCH  46  49
HETATM   49  C   UNL     1       3.735   5.649   1.046  1.00  0.00     0.134 C 
HETATM   50  C   UNL     1       5.148   5.810   1.626  1.00  0.00     0.024 C 
HETATM   51  C   UNL     1       6.227   5.368   0.633  1.00  0.00     0.018 C 
HETATM   52  C   UNL     1       6.125   6.142  -0.689  1.00  0.00     0.240 C 
HETATM   53  C   UNL     1       4.721   5.971  -1.280  1.00  0.00     0.032 C 
HETATM   54  C   UNL     1       3.629   6.399  -0.290  1.00  0.00     0.018 C 
BRANCH  52  55
HETATM   55  N   UNL     1       7.148   5.695  -1.660  1.00  0.00     0.133 N 
HETATM   56  C   UNL     1       8.052   6.772  -2.118  1.00  0.00     0.352 C 
HETATM   57  C   UNL     1       7.317   7.879  -2.877  1.00  0.00     0.085 C 
HETATM   58  O   UNL     1       9.228   6.431  -2.819  1.00  0.00    -0.189 OA
HETATM   59  H   UNL     1       7.700   4.965  -1.235  1.00  0.00     0.320 HD
ENDBRANCH  52  55
ENDBRANCH  46  49
ENDBRANCH  44  46
ENDBRANCH  38  44
ENDBRANCH  32  33
ENDBRANCH  11  32
BRANCH  12  60
HETATM   60  C   UNL     1      -1.151   4.228   5.663  1.00  0.00     0.198 C 
BRANCH  60  61
HETATM   61  O   UNL     1      -0.471   2.994   5.580  1.00  0.00    -0.398 OA
HETATM   62  H   UNL     1       0.472   3.159   5.653  1.00  0.00     0.209 HD
ENDBRANCH  60  61
ENDBRANCH  12  60
ENDBRANCH   7   8
ENDBRANCH   3   7
BRANCH   1  63
HETATM   63  C   UNL     1      -1.103   5.885  12.753  1.00  0.00     0.198 C 
BRANCH  63  64
HETATM   64  O   UNL     1      -0.963   5.614  14.131  1.00  0.00    -0.398 OA
HETATM   65  H   UNL     1      -1.023   6.442  14.612  1.00  0.00     0.209 HD
ENDBRANCH  63  64
ENDBRANCH   1  63
BRANCH   2  66
HETATM   66  O   UNL     1       2.176   4.639   9.990  1.00  0.00    -0.391 OA
HETATM   67  H   UNL     1       2.404   4.135  10.774  1.00  0.00     0.210 HD
ENDBRANCH   2  66
BRANCH   6  68
HETATM   68  N   UNL     1       4.205   5.739  11.382  1.00  0.00     0.090 N 
HETATM   69  H   UNL     1       4.251   5.267  10.490  1.00  0.00     0.313 HD
HETATM   70  H   UNL     1       4.910   6.461  11.418  1.00  0.00     0.313 HD
ENDBRANCH   6  68
BRANCH   4  71
HETATM   71  O   UNL     1       1.656   7.093  13.545  1.00  0.00    -0.348 OA
BRANCH  71  72
HETATM   72  C   UNL     1       2.090   7.453  14.860  1.00  0.00     0.186 C 
HETATM   73  C   UNL     1       2.721   6.296  15.666  1.00  0.00     0.179 C 
HETATM   74  O   UNL     1       2.937   6.740  16.997  1.00  0.00    -0.349 OA
HETATM   75  C   UNL     1       3.843   7.827  17.083  1.00  0.00     0.282 C 
HETATM   76  C   UNL     1       3.279   9.073  16.381  1.00  0.00     0.157 C 
HETATM   77  C   UNL     1       2.972   8.721  14.912  1.00  0.00     0.173 C 
BRANCH  73  78
HETATM   78  C   UNL     1       1.791   5.077  15.734  1.00  0.00     0.198 C 
BRANCH  78  79
HETATM   79  O   UNL     1       2.138   4.261  16.834  1.00  0.00    -0.398 OA
HETATM   80  H   UNL     1       1.442   3.613  16.962  1.00  0.00     0.209 HD
ENDBRANCH  78  79
ENDBRANCH  73  78
BRANCH  75  81
HETATM   81  O   UNL     1       3.903   8.020  18.492  1.00  0.00    -0.349 OA
BRANCH  81  82
HETATM   82  C   UNL     1       2.722   7.758  19.255  1.00  0.00     0.186 C 
HETATM   83  C   UNL     1       2.945   7.153  20.663  1.00  0.00     0.176 C 
HETATM   84  O   UNL     1       1.686   6.863  21.269  1.00  0.00    -0.379 OA
HETATM   85  C   UNL     1       0.814   7.980  21.386  1.00  0.00     0.191 C 
HETATM   86  C   UNL     1       0.472   8.549  19.999  1.00  0.00     0.126 C 
HETATM   87  C   UNL     1       1.777   8.976  19.305  1.00  0.00     0.170 C 
BRANCH  83  88
HETATM   88  C   UNL     1       3.712   5.825  20.590  1.00  0.00     0.198 C 
BRANCH  88  89
HETATM   89  O   UNL     1       3.253   5.058  19.497  1.00  0.00    -0.398 OA
HETATM   90  H   UNL     1       3.204   5.627  18.726  1.00  0.00     0.209 HD
ENDBRANCH  88  89
ENDBRANCH  83  88
BRANCH  86  91
HETATM   91  N   UNL     1      -0.491   9.666  20.126  1.00  0.00    -0.210 NA
HETATM   92  H   UNL     1      -0.538   9.942  21.095  1.00  0.00     0.140 HD
BRANCH  91  93
HETATM   93  S   UNL     1      -2.097   9.164  19.721  1.00  0.00     0.215 S 
HETATM   94  O   UNL     1      -2.931   8.538  21.038  1.00  0.00    -0.211 OA
HETATM   95  O   UNL     1      -2.963  10.443  19.060  1.00  0.00    -0.211 OA
BRANCH  93  96
HETATM   96  C   UNL     1      -1.987   7.864  18.468  1.00  0.00     0.134 C 
HETATM   97  C   UNL     1      -3.215   7.835  17.549  1.00  0.00     0.024 C 
HETATM   98  C   UNL     1      -3.082   6.749  16.477  1.00  0.00     0.018 C 
HETATM   99  C   UNL     1      -2.881   5.358  17.099  1.00  0.00     0.240 C 
HETATM  100  C   UNL     1      -1.652   5.378  18.016  1.00  0.00     0.032 C 
HETATM  101  C   UNL     1      -1.758   6.474  19.083  1.00  0.00     0.018 C 
BRANCH  99 102
HETATM  102  N   UNL     1      -2.723   4.321  16.058  1.00  0.00     0.133 N 
HETATM  103  C   UNL     1      -3.939   3.510  15.843  1.00  0.00     0.352 C 
HETATM  104  C   UNL     1      -4.288   2.653  17.062  1.00  0.00     0.085 C 
HETATM  105  O   UNL     1      -4.043   2.722  14.677  1.00  0.00    -0.189 OA
HETATM  106  H   UNL     1      -2.468   4.769  15.190  1.00  0.00     0.320 HD
ENDBRANCH  99 102
ENDBRANCH  93  96
ENDBRANCH  91  93
ENDBRANCH  86  91
BRANCH  87 107
HETATM  107  O   UNL     1       2.316  10.080  20.007  1.00  0.00    -0.391 OA
HETATM  108  H   UNL     1       1.877  10.878  19.701  1.00  0.00     0.210 HD
ENDBRANCH  87 107
ENDBRANCH  81  82
ENDBRANCH  75  81
BRANCH  76 109
HETATM  109  N   UNL     1       4.258  10.174  16.474  1.00  0.00    -0.208 NA
HETATM  110  H   UNL     1       4.964   9.934  17.156  1.00  0.00     0.140 HD
BRANCH 109 111
HETATM  111  S   UNL     1       3.559  11.635  17.065  1.00  0.00     0.215 S 
HETATM  112  O   UNL     1       1.892  11.529  17.252  1.00  0.00    -0.211 OA
HETATM  113  O   UNL     1       4.283  12.042  18.526  1.00  0.00    -0.211 OA
BRANCH 111 114
HETATM  114  C   UNL     1       3.936  12.917  15.846  1.00  0.00     0.134 C 
HETATM  115  C   UNL     1       3.942  12.357  14.418  1.00  0.00     0.024 C 
HETATM  116  C   UNL     1       4.261  13.440  13.382  1.00  0.00     0.018 C 
HETATM  117  C   UNL     1       5.612  14.105  13.664  1.00  0.00     0.240 C 
HETATM  118  C   UNL     1       5.618  14.685  15.087  1.00  0.00     0.032 C 
HETATM  119  C   UNL     1       5.270  13.622  16.137  1.00  0.00     0.018 C 
BRANCH 117 120
HETATM  120  N   UNL     1       5.880  15.150  12.655  1.00  0.00     0.133 N 
HETATM  121  C   UNL     1       7.269  15.149  12.150  1.00  0.00     0.352 C 
HETATM  122  C   UNL     1       7.520  13.986  11.184  1.00  0.00     0.085 C 
HETATM  123  O   UNL     1       7.793  16.335  11.593  1.00  0.00    -0.189 OA
HETATM  124  H   UNL     1       5.677  16.051  13.065  1.00  0.00     0.320 HD
ENDBRANCH 117 120
ENDBRANCH 111 114
ENDBRANCH 109 111
ENDBRANCH  76 109
BRANCH  77 125
HETATM  125  O   UNL     1       4.209   8.567  14.241  1.00  0.00    -0.391 OA
HETATM  126  H   UNL     1       4.228   9.172  13.497  1.00  0.00     0.210 HD
ENDBRANCH  77 125
ENDBRANCH  71  72
ENDBRANCH   4  71
TORSDOF 40
ENDMDL
MODEL 4
REMARK VINA RESULT:      -9.4      2.940      6.032
REMARK WARNING: 32 MAX_TORS EXCEEDED!!!
REMARK  40 active torsions:
REMARK  status: ('A' for Active; 'I' for Inactive)
REMARK    1  A    between atoms: C_1  and  O_123 
REMARK    2  A    between atoms: C_2  and  C_6 
REMARK    3  A    between atoms: C_3  and  O_10 
REMARK    4  A    between atoms: C_4  and  N_12 
REMARK    5  A    between atoms: C_5  and  O_124 
REMARK    6  A    between atoms: C_6  and  O_7 
REMARK    7  A    between atoms: N_12  and  S_13 
REMARK    8  A    between atoms: S_13  and  C_17 
REMARK    9  A    between atoms: C_20  and  N_23 
REMARK       I    between atoms: N_23  and  C_24 
REMARK   10  A    between atoms: O_29  and  C_33 
REMARK   11  A    between atoms: O_30  and  C_34 
REMARK   12  A    between atoms: C_31  and  C_34 
REMARK   13  A    between atoms: C_36  and  O_124 
REMARK   14  A    between atoms: N_37  and  C_40 
REMARK   15  A    between atoms: C_38  and  O_125 
REMARK   16  A    between atoms: O_42  and  C_46 
REMARK   17  A    between atoms: O_43  and  C_47 
REMARK   18  A    between atoms: C_44  and  C_47 
REMARK   19  A    between atoms: C_49  and  O_125 
REMARK   20  A    between atoms: N_50  and  S_61 
REMARK   21  A    between atoms: N_50  and  C_53 
REMARK   22  A    between atoms: C_51  and  O_126 
REMARK   23  A    between atoms: C_56  and  N_63 
REMARK   24  A    between atoms: C_59  and  S_61 
REMARK       I    between atoms: C_62  and  N_63 
REMARK   25  A    between atoms: O_69  and  C_73 
REMARK   26  A    between atoms: O_70  and  C_74 
REMARK   27  A    between atoms: C_71  and  C_74 
REMARK   28  A    between atoms: C_76  and  O_126 
REMARK   29  A    between atoms: N_77  and  S_88 
REMARK   30  A    between atoms: N_77  and  C_80 
REMARK   31  A    between atoms: C_83  and  N_90 
REMARK   32  A    between atoms: C_86  and  S_88 
REMARK       I    between atoms: C_89  and  N_90 
REMARK   33  A    between atoms: O_96  and  C_100 
REMARK   34  A    between atoms: O_97  and  C_101 
REMARK   35  A    between atoms: C_98  and  C_101 
REMARK   36  A    between atoms: N_104  and  S_115 
REMARK   37  A    between atoms: N_104  and  C_107 
REMARK   38  A    between atoms: C_105  and  O_123 
REMARK   39  A    between atoms: C_110  and  N_117 
REMARK   40  A    between atoms: C_113  and  S_115 
REMARK       I    between atoms: C_116  and  N_117 
ROOT
HETATM    1  C   UNL     1       0.237   5.115  11.242  1.00  0.00     0.179 C 
HETATM    2  C   UNL     1       2.210   6.163  10.028  1.00  0.00     0.187 C 
HETATM    3  C   UNL     1       0.807   6.413  10.615  1.00  0.00     0.186 C 
HETATM    4  C   UNL     1       2.479   4.866  12.235  1.00  0.00     0.296 C 
HETATM    5  O   UNL     1       1.257   4.268  11.789  1.00  0.00    -0.349 OA
HETATM    6  C   UNL     1       3.159   5.754  11.171  1.00  0.00     0.303 C 
ENDROOT
BRANCH   3   7
HETATM    7  O   UNL     1      -0.052   7.086   9.692  1.00  0.00    -0.349 OA
BRANCH   7   8
HETATM    8  C   UNL     1       0.311   7.071   8.317  1.00  0.00     0.282 C 
HETATM    9  C   UNL     1       0.009   8.426   7.668  1.00  0.00     0.157 C 
HETATM   10  C   UNL     1       0.220   8.286   6.151  1.00  0.00     0.173 C 
HETATM   11  C   UNL     1      -0.642   7.112   5.630  1.00  0.00     0.186 C 
HETATM   12  C   UNL     1      -0.371   5.811   6.423  1.00  0.00     0.179 C 
HETATM   13  O   UNL     1      -0.544   6.059   7.813  1.00  0.00    -0.349 OA
BRANCH   9  14
HETATM   14  N   UNL     1       0.887   9.459   8.252  1.00  0.00    -0.208 NA
HETATM   15  H   UNL     1       1.376   9.067   9.044  1.00  0.00     0.140 HD
BRANCH  14  16
HETATM   16  S   UNL     1      -0.035  10.769   8.899  1.00  0.00     0.215 S 
HETATM   17  O   UNL     1       0.700  12.257   8.636  1.00  0.00    -0.211 OA
HETATM   18  O   UNL     1      -1.576  10.761   8.232  1.00  0.00    -0.211 OA
BRANCH  16  19
HETATM   19  C   UNL     1      -0.173  10.498  10.681  1.00  0.00     0.134 C 
HETATM   20  C   UNL     1      -0.533  11.792  11.422  1.00  0.00     0.024 C 
HETATM   21  C   UNL     1      -0.675  11.562  12.929  1.00  0.00     0.018 C 
HETATM   22  C   UNL     1       0.613  10.986  13.525  1.00  0.00     0.240 C 
HETATM   23  C   UNL     1       0.977   9.680  12.800  1.00  0.00     0.032 C 
HETATM   24  C   UNL     1       1.101   9.888  11.286  1.00  0.00     0.018 C 
BRANCH  22  25
HETATM   25  N   UNL     1       0.450  10.781  14.981  1.00  0.00     0.133 N 
HETATM   26  C   UNL     1       1.672  10.332  15.684  1.00  0.00     0.352 C 
HETATM   27  O   UNL     1       1.552   9.862  17.009  1.00  0.00    -0.189 OA
HETATM   28  C   UNL     1       2.813  11.353  15.614  1.00  0.00     0.085 C 
HETATM   29  H   UNL     1      -0.279  10.098  15.131  1.00  0.00     0.320 HD
ENDBRANCH  22  25
ENDBRANCH  16  19
ENDBRANCH  14  16
ENDBRANCH   9  14
BRANCH  10  30
HETATM   30  O   UNL     1       1.606   8.109   5.923  1.00  0.00    -0.391 OA
HETATM   31  H   UNL     1       1.897   8.776   5.296  1.00  0.00     0.210 HD
ENDBRANCH  10  30
BRANCH  11  32
HETATM   32  O   UNL     1      -0.596   6.986   4.204  1.00  0.00    -0.349 OA
BRANCH  32  33
HETATM   33  C   UNL     1      -1.206   5.838   3.625  1.00  0.00     0.281 C 
HETATM   34  O   UNL     1      -2.463   6.357   3.229  1.00  0.00    -0.352 OA
HETATM   35  C   UNL     1      -3.307   5.356   2.682  1.00  0.00     0.150 C 
HETATM   36  C   UNL     1      -2.672   4.809   1.391  1.00  0.00     0.067 C 
HETATM   37  C   UNL     1      -1.246   4.296   1.650  1.00  0.00     0.144 C 
HETATM   38  C   UNL     1      -0.407   5.342   2.409  1.00  0.00     0.155 C 
BRANCH  35  39
HETATM   39  C   UNL     1      -4.686   5.959   2.393  1.00  0.00     0.196 C 
BRANCH  39  40
HETATM   40  O   UNL     1      -5.384   5.150   1.470  1.00  0.00    -0.398 OA
HETATM   41  H   UNL     1      -5.993   4.590   1.955  1.00  0.00     0.209 HD
ENDBRANCH  39  40
ENDBRANCH  35  39
BRANCH  37  42
HETATM   42  O   UNL     1      -1.290   3.090   2.388  1.00  0.00    -0.394 OA
HETATM   43  H   UNL     1      -1.877   2.478   1.938  1.00  0.00     0.210 HD
ENDBRANCH  37  42
BRANCH  38  44
HETATM   44  N   UNL     1       0.882   4.782   2.864  1.00  0.00    -0.208 NA
HETATM   45  H   UNL     1       0.800   4.513   3.834  1.00  0.00     0.140 HD
BRANCH  44  46
HETATM   46  S   UNL     1       2.162   5.939   2.831  1.00  0.00     0.215 S 
HETATM   47  O   UNL     1       1.644   7.468   2.366  1.00  0.00    -0.211 OA
HETATM   48  O   UNL     1       2.902   6.012   4.338  1.00  0.00    -0.211 OA
BRANCH  46  49
HETATM   49  C   UNL     1       3.367   5.355   1.613  1.00  0.00     0.134 C 
HETATM   50  C   UNL     1       4.420   4.442   2.256  1.00  0.00     0.024 C 
HETATM   51  C   UNL     1       5.437   3.932   1.232  1.00  0.00     0.018 C 
HETATM   52  C   UNL     1       6.138   5.091   0.510  1.00  0.00     0.240 C 
HETATM   53  C   UNL     1       5.091   5.997  -0.148  1.00  0.00     0.032 C 
HETATM   54  C   UNL     1       4.058   6.506   0.866  1.00  0.00     0.018 C 
BRANCH  52  55
HETATM   55  N   UNL     1       7.099   4.600  -0.501  1.00  0.00     0.133 N 
HETATM   56  C   UNL     1       7.608   3.238  -0.235  1.00  0.00     0.352 C 
HETATM   57  C   UNL     1       8.404   3.148   1.069  1.00  0.00     0.085 C 
HETATM   58  O   UNL     1       8.303   2.551  -1.252  1.00  0.00    -0.189 OA
HETATM   59  H   UNL     1       6.650   4.609  -1.406  1.00  0.00     0.320 HD
ENDBRANCH  52  55
ENDBRANCH  46  49
ENDBRANCH  44  46
ENDBRANCH  38  44
ENDBRANCH  32  33
ENDBRANCH  11  32
BRANCH  12  60
HETATM   60  C   UNL     1      -1.357   4.695   6.053  1.00  0.00     0.198 C 
BRANCH  60  61
HETATM   61  O   UNL     1      -2.301   4.524   7.089  1.00  0.00    -0.398 OA
HETATM   62  H   UNL     1      -1.839   4.227   7.877  1.00  0.00     0.209 HD
ENDBRANCH  60  61
ENDBRANCH  12  60
ENDBRANCH   7   8
ENDBRANCH   3   7
BRANCH   1  63
HETATM   63  C   UNL     1      -0.858   5.434  12.272  1.00  0.00     0.198 C 
BRANCH  63  64
HETATM   64  O   UNL     1      -0.897   6.823  12.517  1.00  0.00    -0.398 OA
HETATM   65  H   UNL     1      -0.483   7.275  11.778  1.00  0.00     0.209 HD
ENDBRANCH  63  64
ENDBRANCH   1  63
BRANCH   2  66
HETATM   66  O   UNL     1       2.206   5.152   9.036  1.00  0.00    -0.391 OA
HETATM   67  H   UNL     1       1.647   5.441   8.310  1.00  0.00     0.210 HD
ENDBRANCH   2  66
BRANCH   6  68
HETATM   68  N   UNL     1       4.368   5.096  10.643  1.00  0.00     0.090 N 
HETATM   69  H   UNL     1       4.963   4.816  11.409  1.00  0.00     0.313 HD
HETATM   70  H   UNL     1       4.101   4.283  10.107  1.00  0.00     0.313 HD
ENDBRANCH   6  68
BRANCH   4  71
HETATM   71  O   UNL     1       2.054   5.640  13.356  1.00  0.00    -0.348 OA
BRANCH  71  72
HETATM   72  C   UNL     1       1.524   4.939  14.485  1.00  0.00     0.186 C 
HETATM   73  C   UNL     1       2.587   4.240  15.363  1.00  0.00     0.179 C 
HETATM   74  O   UNL     1       1.918   3.444  16.329  1.00  0.00    -0.349 OA
HETATM   75  C   UNL     1       1.108   4.200  17.212  1.00  0.00     0.282 C 
HETATM   76  C   UNL     1      -0.046   4.882  16.457  1.00  0.00     0.157 C 
HETATM   77  C   UNL     1       0.545   5.771  15.345  1.00  0.00     0.173 C 
BRANCH  73  78
HETATM   78  C   UNL     1       3.480   3.305  14.537  1.00  0.00     0.198 C 
BRANCH  78  79
HETATM   79  O   UNL     1       3.931   2.231  15.335  1.00  0.00    -0.398 OA
HETATM   80  H   UNL     1       3.201   1.620  15.462  1.00  0.00     0.209 HD
ENDBRANCH  78  79
ENDBRANCH  73  78
BRANCH  75  81
HETATM   81  O   UNL     1       0.617   3.180  18.075  1.00  0.00    -0.349 OA
BRANCH  81  82
HETATM   82  C   UNL     1       0.872   1.819  17.714  1.00  0.00     0.186 C 
HETATM   83  C   UNL     1       1.498   0.930  18.817  1.00  0.00     0.176 C 
HETATM   84  O   UNL     1       1.776  -0.367  18.292  1.00  0.00    -0.379 OA
HETATM   85  C   UNL     1       0.647  -1.041  17.750  1.00  0.00     0.191 C 
HETATM   86  C   UNL     1       0.055  -0.249  16.573  1.00  0.00     0.126 C 
HETATM   87  C   UNL     1      -0.360   1.145  17.075  1.00  0.00     0.170 C 
BRANCH  83  88
HETATM   88  C   UNL     1       2.836   1.502  19.307  1.00  0.00     0.198 C 
BRANCH  88  89
HETATM   89  O   UNL     1       3.616   1.924  18.208  1.00  0.00    -0.398 OA
HETATM   90  H   UNL     1       3.621   1.223  17.554  1.00  0.00     0.209 HD
ENDBRANCH  88  89
ENDBRANCH  83  88
BRANCH  86  91
HETATM   91  N   UNL     1      -1.074  -0.991  15.971  1.00  0.00    -0.210 NA
HETATM   92  H   UNL     1      -0.996  -1.963  16.231  1.00  0.00     0.140 HD
BRANCH  91  93
HETATM   93  S   UNL     1      -0.989  -0.978  14.243  1.00  0.00     0.215 S 
HETATM   94  O   UNL     1      -2.223  -0.080  13.541  1.00  0.00    -0.211 OA
HETATM   95  O   UNL     1       0.499  -0.388  13.731  1.00  0.00    -0.211 OA
BRANCH  93  96
HETATM   96  C   UNL     1      -1.142  -2.681  13.654  1.00  0.00     0.134 C 
HETATM   97  C   UNL     1      -2.393  -2.889  12.790  1.00  0.00     0.024 C 
HETATM   98  C   UNL     1      -2.482  -4.328  12.276  1.00  0.00     0.018 C 
HETATM   99  C   UNL     1      -2.487  -5.345  13.429  1.00  0.00     0.240 C 
HETATM  100  C   UNL     1      -1.236  -5.146  14.294  1.00  0.00     0.032 C 
HETATM  101  C   UNL     1      -1.120  -3.703  14.801  1.00  0.00     0.018 C 
BRANCH  99 102
HETATM  102  N   UNL     1      -2.541  -6.732  12.924  1.00  0.00     0.133 N 
HETATM  103  C   UNL     1      -1.215  -7.290  12.584  1.00  0.00     0.352 C 
HETATM  104  C   UNL     1      -0.571  -6.570  11.397  1.00  0.00     0.085 C 
HETATM  105  O   UNL     1      -1.079  -8.684  12.411  1.00  0.00    -0.189 OA
HETATM  106  H   UNL     1      -2.973  -7.316  13.625  1.00  0.00     0.320 HD
ENDBRANCH  99 102
ENDBRANCH  93  96
ENDBRANCH  91  93
ENDBRANCH  86  91
BRANCH  87 107
HETATM  107  O   UNL     1      -1.447   0.992  17.968  1.00  0.00    -0.391 OA
HETATM  108  H   UNL     1      -1.438   0.094  18.306  1.00  0.00     0.210 HD
ENDBRANCH  87 107
ENDBRANCH  81  82
ENDBRANCH  75  81
BRANCH  76 109
HETATM  109  N   UNL     1      -0.852   5.675  17.405  1.00  0.00    -0.208 NA
HETATM  110  H   UNL     1      -0.796   5.255  18.322  1.00  0.00     0.140 HD
BRANCH 109 111
HETATM  111  S   UNL     1      -2.533   5.659  17.020  1.00  0.00     0.215 S 
HETATM  112  O   UNL     1      -3.461   6.529  18.119  1.00  0.00    -0.211 OA
HETATM  113  O   UNL     1      -2.749   6.267  15.468  1.00  0.00    -0.211 OA
BRANCH 111 114
HETATM  114  C   UNL     1      -3.053   3.927  17.049  1.00  0.00     0.134 C 
HETATM  115  C   UNL     1      -3.553   3.462  15.675  1.00  0.00     0.024 C 
HETATM  116  C   UNL     1      -3.995   1.995  15.696  1.00  0.00     0.018 C 
HETATM  117  C   UNL     1      -5.094   1.756  16.736  1.00  0.00     0.240 C 
HETATM  118  C   UNL     1      -4.605   2.202  18.122  1.00  0.00     0.032 C 
HETATM  119  C   UNL     1      -4.128   3.660  18.115  1.00  0.00     0.018 C 
BRANCH 117 120
HETATM  120  N   UNL     1      -5.485   0.331  16.737  1.00  0.00     0.133 N 
HETATM  121  C   UNL     1      -6.494  -0.009  17.762  1.00  0.00     0.352 C 
HETATM  122  C   UNL     1      -7.889   0.495  17.374  1.00  0.00     0.085 C 
HETATM  123  O   UNL     1      -6.593  -1.345  18.206  1.00  0.00    -0.189 OA
HETATM  124  H   UNL     1      -4.658  -0.229  16.888  1.00  0.00     0.320 HD
ENDBRANCH 117 120
ENDBRANCH 111 114
ENDBRANCH 109 111
ENDBRANCH  76 109
BRANCH  77 125
HETATM  125  O   UNL     1       1.157   6.885  15.968  1.00  0.00    -0.391 OA
HETATM  126  H   UNL     1       0.876   6.912  16.885  1.00  0.00     0.210 HD
ENDBRANCH  77 125
ENDBRANCH  71  72
ENDBRANCH   4  71
TORSDOF 40
ENDMDL
MODEL 5
REMARK VINA RESULT:      -9.1     15.236     23.327
REMARK WARNING: 32 MAX_TORS EXCEEDED!!!
REMARK  40 active torsions:
REMARK  status: ('A' for Active; 'I' for Inactive)
REMARK    1  A    between atoms: C_1  and  O_123 
REMARK    2  A    between atoms: C_2  and  C_6 
REMARK    3  A    between atoms: C_3  and  O_10 
REMARK    4  A    between atoms: C_4  and  N_12 
REMARK    5  A    between atoms: C_5  and  O_124 
REMARK    6  A    between atoms: C_6  and  O_7 
REMARK    7  A    between atoms: N_12  and  S_13 
REMARK    8  A    between atoms: S_13  and  C_17 
REMARK    9  A    between atoms: C_20  and  N_23 
REMARK       I    between atoms: N_23  and  C_24 
REMARK   10  A    between atoms: O_29  and  C_33 
REMARK   11  A    between atoms: O_30  and  C_34 
REMARK   12  A    between atoms: C_31  and  C_34 
REMARK   13  A    between atoms: C_36  and  O_124 
REMARK   14  A    between atoms: N_37  and  C_40 
REMARK   15  A    between atoms: C_38  and  O_125 
REMARK   16  A    between atoms: O_42  and  C_46 
REMARK   17  A    between atoms: O_43  and  C_47 
REMARK   18  A    between atoms: C_44  and  C_47 
REMARK   19  A    between atoms: C_49  and  O_125 
REMARK   20  A    between atoms: N_50  and  S_61 
REMARK   21  A    between atoms: N_50  and  C_53 
REMARK   22  A    between atoms: C_51  and  O_126 
REMARK   23  A    between atoms: C_56  and  N_63 
REMARK   24  A    between atoms: C_59  and  S_61 
REMARK       I    between atoms: C_62  and  N_63 
REMARK   25  A    between atoms: O_69  and  C_73 
REMARK   26  A    between atoms: O_70  and  C_74 
REMARK   27  A    between atoms: C_71  and  C_74 
REMARK   28  A    between atoms: C_76  and  O_126 
REMARK   29  A    between atoms: N_77  and  S_88 
REMARK   30  A    between atoms: N_77  and  C_80 
REMARK   31  A    between atoms: C_83  and  N_90 
REMARK   32  A    between atoms: C_86  and  S_88 
REMARK       I    between atoms: C_89  and  N_90 
REMARK   33  A    between atoms: O_96  and  C_100 
REMARK   34  A    between atoms: O_97  and  C_101 
REMARK   35  A    between atoms: C_98  and  C_101 
REMARK   36  A    between atoms: N_104  and  S_115 
REMARK   37  A    between atoms: N_104  and  C_107 
REMARK   38  A    between atoms: C_105  and  O_123 
REMARK   39  A    between atoms: C_110  and  N_117 
REMARK   40  A    between atoms: C_113  and  S_115 
REMARK       I    between atoms: C_116  and  N_117 
ROOT
HETATM    1  C   UNL     1      11.767 -12.587   7.424  1.00  0.00     0.179 C 
HETATM    2  C   UNL     1      13.077 -13.514   9.397  1.00  0.00     0.187 C 
HETATM    3  C   UNL     1      12.052 -13.839   8.292  1.00  0.00     0.186 C 
HETATM    4  C   UNL     1      14.213 -12.282   7.443  1.00  0.00     0.296 C 
HETATM    5  O   UNL     1      12.903 -11.719   7.312  1.00  0.00    -0.349 OA
HETATM    6  C   UNL     1      14.406 -13.106   8.734  1.00  0.00     0.303 C 
ENDROOT
BRANCH   3   7
HETATM    7  O   UNL     1      10.901 -14.515   8.805  1.00  0.00    -0.349 OA
BRANCH   7   8
HETATM    8  C   UNL     1       9.627 -14.117   8.315  1.00  0.00     0.282 C 
HETATM    9  C   UNL     1       8.772 -13.543   9.450  1.00  0.00     0.157 C 
HETATM   10  C   UNL     1       7.346 -13.330   8.914  1.00  0.00     0.173 C 
HETATM   11  C   UNL     1       6.828 -14.661   8.323  1.00  0.00     0.186 C 
HETATM   12  C   UNL     1       7.811 -15.242   7.278  1.00  0.00     0.179 C 
HETATM   13  O   UNL     1       9.106 -15.353   7.857  1.00  0.00    -0.349 OA
BRANCH   9  14
HETATM   14  N   UNL     1       9.373 -12.283   9.931  1.00  0.00    -0.208 NA
HETATM   15  H   UNL     1      10.252 -12.134   9.456  1.00  0.00     0.140 HD
BRANCH  14  16
HETATM   16  S   UNL     1       9.780 -12.383  11.606  1.00  0.00     0.215 S 
HETATM   17  O   UNL     1      10.647 -13.776  11.971  1.00  0.00    -0.211 OA
HETATM   18  O   UNL     1      10.657 -11.024  12.058  1.00  0.00    -0.211 OA
BRANCH  16  19
HETATM   19  C   UNL     1       8.228 -12.407  12.534  1.00  0.00     0.134 C 
HETATM   20  C   UNL     1       7.272 -11.305  12.063  1.00  0.00     0.024 C 
HETATM   21  C   UNL     1       5.947 -11.336  12.829  1.00  0.00     0.018 C 
HETATM   22  C   UNL     1       6.176 -11.189  14.336  1.00  0.00     0.240 C 
HETATM   23  C   UNL     1       7.122 -12.297  14.824  1.00  0.00     0.032 C 
HETATM   24  C   UNL     1       8.446 -12.294  14.051  1.00  0.00     0.018 C 
BRANCH  22  25
HETATM   25  N   UNL     1       4.881 -11.216  15.050  1.00  0.00     0.133 N 
HETATM   26  C   UNL     1       4.873 -10.502  16.346  1.00  0.00     0.352 C 
HETATM   27  O   UNL     1       3.776 -10.692  17.213  1.00  0.00    -0.189 OA
HETATM   28  C   UNL     1       5.148  -9.001  16.205  1.00  0.00     0.085 C 
HETATM   29  H   UNL     1       4.620 -12.179  15.209  1.00  0.00     0.320 HD
ENDBRANCH  22  25
ENDBRANCH  16  19
ENDBRANCH  14  16
ENDBRANCH   9  14
BRANCH  10  30
HETATM   30  O   UNL     1       7.396 -12.277   7.968  1.00  0.00    -0.391 OA
HETATM   31  H   UNL     1       7.422 -12.661   7.088  1.00  0.00     0.210 HD
ENDBRANCH  10  30
BRANCH  11  32
HETATM   32  O   UNL     1       5.460 -14.583   7.905  1.00  0.00    -0.349 OA
BRANCH  32  33
HETATM   33  C   UNL     1       5.206 -14.307   6.533  1.00  0.00     0.281 C 
HETATM   34  O   UNL     1       4.683 -15.548   6.089  1.00  0.00    -0.352 OA
HETATM   35  C   UNL     1       4.420 -15.549   4.695  1.00  0.00     0.150 C 
HETATM   36  C   UNL     1       3.322 -14.516   4.386  1.00  0.00     0.067 C 
HETATM   37  C   UNL     1       3.712 -13.122   4.907  1.00  0.00     0.144 C 
HETATM   38  C   UNL     1       4.167 -13.185   6.378  1.00  0.00     0.155 C 
BRANCH  35  39
HETATM   39  C   UNL     1       3.978 -16.952   4.265  1.00  0.00     0.196 C 
BRANCH  39  40
HETATM   40  O   UNL     1       5.027 -17.599   3.574  1.00  0.00    -0.398 OA
HETATM   41  H   UNL     1       5.529 -16.937   3.095  1.00  0.00     0.209 HD
ENDBRANCH  39  40
ENDBRANCH  35  39
BRANCH  37  42
HETATM   42  O   UNL     1       4.743 -12.575   4.109  1.00  0.00    -0.394 OA
HETATM   43  H   UNL     1       5.327 -13.287   3.836  1.00  0.00     0.210 HD
ENDBRANCH  37  42
BRANCH  38  44
HETATM   44  N   UNL     1       4.758 -11.906   6.821  1.00  0.00    -0.208 NA
HETATM   45  H   UNL     1       5.722 -12.059   7.078  1.00  0.00     0.140 HD
BRANCH  44  46
HETATM   46  S   UNL     1       4.012 -11.285   8.249  1.00  0.00     0.215 S 
HETATM   47  O   UNL     1       2.904 -12.354   8.920  1.00  0.00    -0.211 OA
HETATM   48  O   UNL     1       5.190 -10.886   9.378  1.00  0.00    -0.211 OA
BRANCH  46  49
HETATM   49  C   UNL     1       3.126  -9.781   7.767  1.00  0.00     0.134 C 
HETATM   50  C   UNL     1       1.968  -9.479   8.728  1.00  0.00     0.024 C 
HETATM   51  C   UNL     1       1.219  -8.201   8.337  1.00  0.00     0.018 C 
HETATM   52  C   UNL     1       0.683  -8.282   6.901  1.00  0.00     0.240 C 
HETATM   53  C   UNL     1       1.839  -8.568   5.935  1.00  0.00     0.032 C 
HETATM   54  C   UNL     1       2.605  -9.839   6.323  1.00  0.00     0.018 C 
BRANCH  52  55
HETATM   55  N   UNL     1      -0.014  -7.036   6.511  1.00  0.00     0.133 N 
HETATM   56  C   UNL     1      -1.315  -7.259   5.847  1.00  0.00     0.352 C 
HETATM   57  C   UNL     1      -1.182  -8.010   4.519  1.00  0.00     0.085 C 
HETATM   58  O   UNL     1      -2.198  -6.172   5.678  1.00  0.00    -0.189 OA
HETATM   59  H   UNL     1      -0.162  -6.476   7.338  1.00  0.00     0.320 HD
ENDBRANCH  52  55
ENDBRANCH  46  49
ENDBRANCH  44  46
ENDBRANCH  38  44
ENDBRANCH  32  33
ENDBRANCH  11  32
BRANCH  12  60
HETATM   60  C   UNL     1       7.410 -16.655   6.833  1.00  0.00     0.198 C 
BRANCH  60  61
HETATM   61  O   UNL     1       6.577 -17.248   7.806  1.00  0.00    -0.398 OA
HETATM   62  H   UNL     1       5.937 -16.595   8.097  1.00  0.00     0.209 HD
ENDBRANCH  60  61
ENDBRANCH  12  60
ENDBRANCH   7   8
ENDBRANCH   3   7
BRANCH   1  63
HETATM   63  C   UNL     1      11.209 -12.984   6.049  1.00  0.00     0.198 C 
BRANCH  63  64
HETATM   64  O   UNL     1      11.545 -14.324   5.762  1.00  0.00    -0.398 OA
HETATM   65  H   UNL     1      12.145 -14.640   6.441  1.00  0.00     0.209 HD
ENDBRANCH  63  64
ENDBRANCH   1  63
BRANCH   2  66
HETATM   66  O   UNL     1      12.636 -12.471  10.249  1.00  0.00    -0.391 OA
HETATM   67  H   UNL     1      12.668 -12.785  11.155  1.00  0.00     0.210 HD
ENDBRANCH   2  66
BRANCH   6  68
HETATM   68  N   UNL     1      15.269 -12.383   9.686  1.00  0.00     0.090 N 
HETATM   69  H   UNL     1      14.726 -11.685  10.173  1.00  0.00     0.313 HD
HETATM   70  H   UNL     1      15.656 -13.036  10.352  1.00  0.00     0.313 HD
ENDBRANCH   6  68
BRANCH   4  71
HETATM   71  O   UNL     1      14.311 -13.109   6.285  1.00  0.00    -0.348 OA
BRANCH  71  72
HETATM   72  C   UNL     1      15.620 -13.409   5.791  1.00  0.00     0.186 C 
HETATM   73  C   UNL     1      15.664 -13.835   4.307  1.00  0.00     0.179 C 
HETATM   74  O   UNL     1      16.979 -14.272   4.003  1.00  0.00    -0.349 OA
HETATM   75  C   UNL     1      17.955 -13.255   4.154  1.00  0.00     0.282 C 
HETATM   76  C   UNL     1      18.062 -12.806   5.621  1.00  0.00     0.157 C 
HETATM   77  C   UNL     1      16.677 -12.323   6.095  1.00  0.00     0.173 C 
BRANCH  73  78
HETATM   78  C   UNL     1      14.714 -15.007   4.023  1.00  0.00     0.198 C 
BRANCH  78  79
HETATM   79  O   UNL     1      13.435 -14.522   3.669  1.00  0.00    -0.398 OA
HETATM   80  H   UNL     1      13.299 -14.683   2.733  1.00  0.00     0.209 HD
ENDBRANCH  78  79
ENDBRANCH  73  78
BRANCH  75  81
HETATM   81  O   UNL     1      19.132 -13.944   3.747  1.00  0.00    -0.349 OA
BRANCH  81  82
HETATM   82  C   UNL     1      19.806 -13.481   2.573  1.00  0.00     0.186 C 
HETATM   83  C   UNL     1      21.346 -13.641   2.567  1.00  0.00     0.176 C 
HETATM   84  O   UNL     1      21.887 -13.061   1.381  1.00  0.00    -0.379 OA
HETATM   85  C   UNL     1      21.369 -13.595   0.170  1.00  0.00     0.191 C 
HETATM   86  C   UNL     1      19.853 -13.359   0.077  1.00  0.00     0.126 C 
HETATM   87  C   UNL     1      19.173 -14.037   1.280  1.00  0.00     0.170 C 
BRANCH  83  88
HETATM   88  C   UNL     1      21.993 -12.907   3.750  1.00  0.00     0.198 C 
BRANCH  88  89
HETATM   89  O   UNL     1      21.306 -11.700   4.007  1.00  0.00    -0.398 OA
HETATM   90  H   UNL     1      20.403 -11.912   4.251  1.00  0.00     0.209 HD
ENDBRANCH  88  89
ENDBRANCH  83  88
BRANCH  86  91
HETATM   91  N   UNL     1      19.334 -13.855  -1.216  1.00  0.00    -0.210 NA
HETATM   92  H   UNL     1      19.974 -13.579  -1.947  1.00  0.00     0.140 HD
BRANCH  91  93
HETATM   93  S   UNL     1      17.831 -13.101  -1.624  1.00  0.00     0.215 S 
HETATM   94  O   UNL     1      16.910 -14.026  -2.682  1.00  0.00    -0.211 OA
HETATM   95  O   UNL     1      16.940 -12.776  -0.238  1.00  0.00    -0.211 OA
BRANCH  93  96
HETATM   96  C   UNL     1      18.187 -11.525  -2.436  1.00  0.00     0.134 C 
HETATM   97  C   UNL     1      17.174 -11.196  -3.541  1.00  0.00     0.024 C 
HETATM   98  C   UNL     1      17.477  -9.843  -4.189  1.00  0.00     0.018 C 
HETATM   99  C   UNL     1      18.897  -9.797  -4.773  1.00  0.00     0.240 C 
HETATM  100  C   UNL     1      19.916 -10.120  -3.674  1.00  0.00     0.032 C 
HETATM  101  C   UNL     1      19.616 -11.464  -2.998  1.00  0.00     0.018 C 
BRANCH  99 102
HETATM  102  N   UNL     1      19.193  -8.477  -5.369  1.00  0.00     0.133 N 
HETATM  103  C   UNL     1      18.633  -8.302  -6.725  1.00  0.00     0.352 C 
HETATM  104  C   UNL     1      19.284  -9.237  -7.746  1.00  0.00     0.085 C 
HETATM  105  O   UNL     1      18.549  -7.004  -7.273  1.00  0.00    -0.189 OA
HETATM  106  H   UNL     1      18.822  -7.758  -4.765  1.00  0.00     0.320 HD
ENDBRANCH  99 102
ENDBRANCH  93  96
ENDBRANCH  91  93
ENDBRANCH  86  91
BRANCH  87 107
HETATM  107  O   UNL     1      19.313 -15.438   1.141  1.00  0.00    -0.391 OA
HETATM  108  H   UNL     1      18.584 -15.863   1.599  1.00  0.00     0.210 HD
ENDBRANCH  87 107
ENDBRANCH  81  82
ENDBRANCH  75  81
BRANCH  76 109
HETATM  109  N   UNL     1      19.071 -11.734   5.734  1.00  0.00    -0.208 NA
HETATM  110  H   UNL     1      19.820 -11.913   5.081  1.00  0.00     0.140 HD
BRANCH 109 111
HETATM  111  S   UNL     1      19.835 -11.704   7.280  1.00  0.00     0.215 S 
HETATM  112  O   UNL     1      19.177 -12.818   8.352  1.00  0.00    -0.211 OA
HETATM  113  O   UNL     1      21.480 -11.983   7.087  1.00  0.00    -0.211 OA
BRANCH 111 114
HETATM  114  C   UNL     1      19.595 -10.037   7.940  1.00  0.00     0.134 C 
HETATM  115  C   UNL     1      18.109  -9.721   8.157  1.00  0.00     0.024 C 
HETATM  116  C   UNL     1      17.902  -8.310   8.717  1.00  0.00     0.018 C 
HETATM  117  C   UNL     1      18.510  -7.247   7.796  1.00  0.00     0.240 C 
HETATM  118  C   UNL     1      20.003  -7.540   7.579  1.00  0.00     0.032 C 
HETATM  119  C   UNL     1      20.234  -8.960   7.049  1.00  0.00     0.018 C 
BRANCH 117 120
HETATM  120  N   UNL     1      18.304  -5.903   8.372  1.00  0.00     0.133 N 
HETATM  121  C   UNL     1      18.732  -4.802   7.484  1.00  0.00     0.352 C 
HETATM  122  C   UNL     1      17.746  -4.587   6.330  1.00  0.00     0.085 C 
HETATM  123  O   UNL     1      19.054  -3.551   8.055  1.00  0.00    -0.189 OA
HETATM  124  H   UNL     1      18.814  -5.845   9.243  1.00  0.00     0.320 HD
ENDBRANCH 117 120
ENDBRANCH 111 114
ENDBRANCH 109 111
ENDBRANCH  76 109
BRANCH  77 125
HETATM  125  O   UNL     1      16.411 -11.090   5.452  1.00  0.00    -0.391 OA
HETATM  126  H   UNL     1      15.461 -10.959   5.430  1.00  0.00     0.210 HD
ENDBRANCH  77 125
ENDBRANCH  71  72
ENDBRANCH   4  71
TORSDOF 40
ENDMDL
MODEL 6
REMARK VINA RESULT:      -8.7      2.960      5.489
REMARK WARNING: 32 MAX_TORS EXCEEDED!!!
REMARK  40 active torsions:
REMARK  status: ('A' for Active; 'I' for Inactive)
REMARK    1  A    between atoms: C_1  and  O_123 
REMARK    2  A    between atoms: C_2  and  C_6 
REMARK    3  A    between atoms: C_3  and  O_10 
REMARK    4  A    between atoms: C_4  and  N_12 
REMARK    5  A    between atoms: C_5  and  O_124 
REMARK    6  A    between atoms: C_6  and  O_7 
REMARK    7  A    between atoms: N_12  and  S_13 
REMARK    8  A    between atoms: S_13  and  C_17 
REMARK    9  A    between atoms: C_20  and  N_23 
REMARK       I    between atoms: N_23  and  C_24 
REMARK   10  A    between atoms: O_29  and  C_33 
REMARK   11  A    between atoms: O_30  and  C_34 
REMARK   12  A    between atoms: C_31  and  C_34 
REMARK   13  A    between atoms: C_36  and  O_124 
REMARK   14  A    between atoms: N_37  and  C_40 
REMARK   15  A    between atoms: C_38  and  O_125 
REMARK   16  A    between atoms: O_42  and  C_46 
REMARK   17  A    between atoms: O_43  and  C_47 
REMARK   18  A    between atoms: C_44  and  C_47 
REMARK   19  A    between atoms: C_49  and  O_125 
REMARK   20  A    between atoms: N_50  and  S_61 
REMARK   21  A    between atoms: N_50  and  C_53 
REMARK   22  A    between atoms: C_51  and  O_126 
REMARK   23  A    between atoms: C_56  and  N_63 
REMARK   24  A    between atoms: C_59  and  S_61 
REMARK       I    between atoms: C_62  and  N_63 
REMARK   25  A    between atoms: O_69  and  C_73 
REMARK   26  A    between atoms: O_70  and  C_74 
REMARK   27  A    between atoms: C_71  and  C_74 
REMARK   28  A    between atoms: C_76  and  O_126 
REMARK   29  A    between atoms: N_77  and  S_88 
REMARK   30  A    between atoms: N_77  and  C_80 
REMARK   31  A    between atoms: C_83  and  N_90 
REMARK   32  A    between atoms: C_86  and  S_88 
REMARK       I    between atoms: C_89  and  N_90 
REMARK   33  A    between atoms: O_96  and  C_100 
REMARK   34  A    between atoms: O_97  and  C_101 
REMARK   35  A    between atoms: C_98  and  C_101 
REMARK   36  A    between atoms: N_104  and  S_115 
REMARK   37  A    between atoms: N_104  and  C_107 
REMARK   38  A    between atoms: C_105  and  O_123 
REMARK   39  A    between atoms: C_110  and  N_117 
REMARK   40  A    between atoms: C_113  and  S_115 
REMARK       I    between atoms: C_116  and  N_117 
ROOT
HETATM    1  C   UNL     1       0.539   4.758  10.865  1.00  0.00     0.179 C 
HETATM    2  C   UNL     1       2.536   6.281  10.468  1.00  0.00     0.187 C 
HETATM    3  C   UNL     1       1.028   6.227  10.780  1.00  0.00     0.186 C 
HETATM    4  C   UNL     1       2.571   4.386  12.210  1.00  0.00     0.296 C 
HETATM    5  O   UNL     1       1.549   3.865  11.354  1.00  0.00    -0.349 OA
HETATM    6  C   UNL     1       3.305   5.612  11.623  1.00  0.00     0.303 C 
ENDROOT
BRANCH   3   7
HETATM    7  O   UNL     1       0.268   7.086   9.925  1.00  0.00    -0.349 OA
BRANCH   7   8
HETATM    8  C   UNL     1       0.598   7.102   8.542  1.00  0.00     0.282 C 
HETATM    9  C   UNL     1       0.174   8.431   7.907  1.00  0.00     0.157 C 
HETATM   10  C   UNL     1       0.357   8.313   6.384  1.00  0.00     0.173 C 
HETATM   11  C   UNL     1      -0.423   7.076   5.879  1.00  0.00     0.186 C 
HETATM   12  C   UNL     1      -0.031   5.798   6.660  1.00  0.00     0.179 C 
HETATM   13  O   UNL     1      -0.189   6.029   8.054  1.00  0.00    -0.349 OA
BRANCH   9  14
HETATM   14  N   UNL     1       0.982   9.529   8.474  1.00  0.00    -0.208 NA
HETATM   15  H   UNL     1       1.479   9.188   9.286  1.00  0.00     0.140 HD
BRANCH  14  16
HETATM   16  S   UNL     1      -0.021  10.804   9.066  1.00  0.00     0.215 S 
HETATM   17  O   UNL     1       0.642  12.322   8.783  1.00  0.00    -0.211 OA
HETATM   18  O   UNL     1      -1.543  10.700   8.361  1.00  0.00    -0.211 OA
BRANCH  16  19
HETATM   19  C   UNL     1      -0.191  10.568  10.850  1.00  0.00     0.134 C 
HETATM   20  C   UNL     1      -0.475  11.892  11.569  1.00  0.00     0.024 C 
HETATM   21  C   UNL     1      -0.644  11.695  13.078  1.00  0.00     0.018 C 
HETATM   22  C   UNL     1       0.601  11.048  13.693  1.00  0.00     0.240 C 
HETATM   23  C   UNL     1       0.888   9.712  12.991  1.00  0.00     0.032 C 
HETATM   24  C   UNL     1       1.037   9.889  11.475  1.00  0.00     0.018 C 
BRANCH  22  25
HETATM   25  N   UNL     1       0.413  10.875  15.151  1.00  0.00     0.133 N 
HETATM   26  C   UNL     1       1.667  10.786  15.931  1.00  0.00     0.352 C 
HETATM   27  O   UNL     1       1.596  10.362  17.274  1.00  0.00    -0.189 OA
HETATM   28  C   UNL     1       2.515  12.061  15.850  1.00  0.00     0.085 C 
HETATM   29  H   UNL     1      -0.127  10.036  15.310  1.00  0.00     0.320 HD
ENDBRANCH  22  25
ENDBRANCH  16  19
ENDBRANCH  14  16
ENDBRANCH   9  14
BRANCH  10  30
HETATM   30  O   UNL     1       1.747   8.246   6.122  1.00  0.00    -0.391 OA
HETATM   31  H   UNL     1       2.204   8.791   6.767  1.00  0.00     0.210 HD
ENDBRANCH  10  30
BRANCH  11  32
HETATM   32  O   UNL     1      -0.403   6.958   4.453  1.00  0.00    -0.349 OA
BRANCH  32  33
HETATM   33  C   UNL     1      -1.009   5.806   3.879  1.00  0.00     0.281 C 
HETATM   34  O   UNL     1      -2.258   6.326   3.458  1.00  0.00    -0.352 OA
HETATM   35  C   UNL     1      -3.099   5.322   2.911  1.00  0.00     0.150 C 
HETATM   36  C   UNL     1      -2.447   4.755   1.637  1.00  0.00     0.067 C 
HETATM   37  C   UNL     1      -1.028   4.238   1.923  1.00  0.00     0.144 C 
HETATM   38  C   UNL     1      -0.195   5.291   2.682  1.00  0.00     0.155 C 
BRANCH  35  39
HETATM   39  C   UNL     1      -4.470   5.928   2.594  1.00  0.00     0.196 C 
BRANCH  39  40
HETATM   40  O   UNL     1      -5.143   5.131   1.641  1.00  0.00    -0.398 OA
HETATM   41  H   UNL     1      -4.559   4.416   1.376  1.00  0.00     0.209 HD
ENDBRANCH  39  40
ENDBRANCH  35  39
BRANCH  37  42
HETATM   42  O   UNL     1      -1.089   3.042   2.676  1.00  0.00    -0.394 OA
HETATM   43  H   UNL     1      -2.005   2.760   2.726  1.00  0.00     0.210 HD
ENDBRANCH  37  42
BRANCH  38  44
HETATM   44  N   UNL     1       1.084   4.730   3.163  1.00  0.00    -0.208 NA
HETATM   45  H   UNL     1       0.997   4.506   4.143  1.00  0.00     0.140 HD
BRANCH  44  46
HETATM   46  S   UNL     1       2.383   5.863   3.080  1.00  0.00     0.215 S 
HETATM   47  O   UNL     1       1.872   7.408   2.664  1.00  0.00    -0.211 OA
HETATM   48  O   UNL     1       3.202   5.898   4.547  1.00  0.00    -0.211 OA
BRANCH  46  49
HETATM   49  C   UNL     1       3.511   5.275   1.792  1.00  0.00     0.134 C 
HETATM   50  C   UNL     1       4.616   4.383   2.376  1.00  0.00     0.024 C 
HETATM   51  C   UNL     1       5.569   3.870   1.293  1.00  0.00     0.018 C 
HETATM   52  C   UNL     1       6.207   5.027   0.511  1.00  0.00     0.240 C 
HETATM   53  C   UNL     1       5.107   5.912  -0.088  1.00  0.00     0.032 C 
HETATM   54  C   UNL     1       4.138   6.423   0.986  1.00  0.00     0.018 C 
BRANCH  52  55
HETATM   55  N   UNL     1       7.104   4.532  -0.555  1.00  0.00     0.133 N 
HETATM   56  C   UNL     1       7.657   3.185  -0.298  1.00  0.00     0.352 C 
HETATM   57  C   UNL     1       8.544   3.136   0.948  1.00  0.00     0.085 C 
HETATM   58  O   UNL     1       8.293   2.490  -1.348  1.00  0.00    -0.189 OA
HETATM   59  H   UNL     1       6.593   4.514  -1.426  1.00  0.00     0.320 HD
ENDBRANCH  52  55
ENDBRANCH  46  49
ENDBRANCH  44  46
ENDBRANCH  38  44
ENDBRANCH  32  33
ENDBRANCH  11  32
BRANCH  12  60
HETATM   60  C   UNL     1      -0.936   4.610   6.309  1.00  0.00     0.198 C 
BRANCH  60  61
HETATM   61  O   UNL     1      -2.109   4.649   7.094  1.00  0.00    -0.398 OA
HETATM   62  H   UNL     1      -2.628   3.864   6.906  1.00  0.00     0.209 HD
ENDBRANCH  60  61
ENDBRANCH  12  60
ENDBRANCH   7   8
ENDBRANCH   3   7
BRANCH   1  63
HETATM   63  C   UNL     1      -0.761   4.655  11.677  1.00  0.00     0.198 C 
BRANCH  63  64
HETATM   64  O   UNL     1      -1.027   5.885  12.317  1.00  0.00    -0.398 OA
HETATM   65  H   UNL     1      -0.545   6.577  11.860  1.00  0.00     0.209 HD
ENDBRANCH  63  64
ENDBRANCH   1  63
BRANCH   2  66
HETATM   66  O   UNL     1       2.857   5.632   9.250  1.00  0.00    -0.391 OA
HETATM   67  H   UNL     1       2.776   4.685   9.381  1.00  0.00     0.210 HD
ENDBRANCH   2  66
BRANCH   6  68
HETATM   68  N   UNL     1       4.670   5.246  11.206  1.00  0.00     0.090 N 
HETATM   69  H   UNL     1       4.629   4.680  10.370  1.00  0.00     0.313 HD
HETATM   70  H   UNL     1       5.201   6.085  11.020  1.00  0.00     0.313 HD
ENDBRANCH   6  68
BRANCH   4  71
HETATM   71  O   UNL     1       1.841   4.738  13.385  1.00  0.00    -0.348 OA
BRANCH  71  72
HETATM   72  C   UNL     1       1.285   3.675  14.165  1.00  0.00     0.186 C 
HETATM   73  C   UNL     1       2.244   3.089  15.226  1.00  0.00     0.179 C 
HETATM   74  O   UNL     1       1.637   1.940  15.795  1.00  0.00    -0.349 OA
HETATM   75  C   UNL     1       0.423   2.225  16.470  1.00  0.00     0.282 C 
HETATM   76  C   UNL     1      -0.645   2.742  15.491  1.00  0.00     0.157 C 
HETATM   77  C   UNL     1      -0.099   3.993  14.775  1.00  0.00     0.173 C 
BRANCH  73  78
HETATM   78  C   UNL     1       3.575   2.644  14.604  1.00  0.00     0.198 C 
BRANCH  78  79
HETATM   79  O   UNL     1       4.382   2.018  15.579  1.00  0.00    -0.398 OA
HETATM   80  H   UNL     1       5.084   2.624  15.827  1.00  0.00     0.209 HD
ENDBRANCH  78  79
ENDBRANCH  73  78
BRANCH  75  81
HETATM   81  O   UNL     1       0.077   0.937  16.966  1.00  0.00    -0.349 OA
BRANCH  81  82
HETATM   82  C   UNL     1       0.522  -0.206  16.230  1.00  0.00     0.186 C 
HETATM   83  C   UNL     1       1.125  -1.359  17.068  1.00  0.00     0.176 C 
HETATM   84  O   UNL     1       1.604  -2.387  16.202  1.00  0.00    -0.379 OA
HETATM   85  C   UNL     1       0.623  -2.926  15.324  1.00  0.00     0.191 C 
HETATM   86  C   UNL     1       0.072  -1.836  14.390  1.00  0.00     0.126 C 
HETATM   87  C   UNL     1      -0.551  -0.720  15.247  1.00  0.00     0.170 C 
BRANCH  83  88
HETATM   88  C   UNL     1       2.330  -0.885  17.893  1.00  0.00     0.198 C 
BRANCH  88  89
HETATM   89  O   UNL     1       3.123  -0.000  17.131  1.00  0.00    -0.398 OA
HETATM   90  H   UNL     1       2.597   0.321  16.395  1.00  0.00     0.209 HD
ENDBRANCH  88  89
ENDBRANCH  83  88
BRANCH  86  91
HETATM   91  N   UNL     1      -0.894  -2.419  13.435  1.00  0.00    -0.210 NA
HETATM   92  H   UNL     1      -1.606  -1.732  13.235  1.00  0.00     0.140 HD
BRANCH  91  93
HETATM   93  S   UNL     1      -1.743  -3.756  14.133  1.00  0.00     0.215 S 
HETATM   94  O   UNL     1      -1.147  -4.184  15.644  1.00  0.00    -0.211 OA
HETATM   95  O   UNL     1      -3.384  -3.414  14.251  1.00  0.00    -0.211 OA
BRANCH  93  96
HETATM   96  C   UNL     1      -1.552  -5.184  13.039  1.00  0.00     0.134 C 
HETATM   97  C   UNL     1      -0.199  -5.883  13.226  1.00  0.00     0.024 C 
HETATM   98  C   UNL     1      -0.076  -7.108  12.314  1.00  0.00     0.018 C 
HETATM   99  C   UNL     1      -0.255  -6.735  10.834  1.00  0.00     0.240 C 
HETATM  100  C   UNL     1      -1.607  -6.040  10.639  1.00  0.00     0.032 C 
HETATM  101  C   UNL     1      -1.757  -4.822  11.560  1.00  0.00     0.018 C 
BRANCH  99 102
HETATM  102  N   UNL     1      -0.165  -7.926   9.964  1.00  0.00     0.133 N 
HETATM  103  C   UNL     1       0.925  -7.851   8.969  1.00  0.00     0.352 C 
HETATM  104  C   UNL     1       0.691  -6.748   7.935  1.00  0.00     0.085 C 
HETATM  105  O   UNL     1       1.335  -9.028   8.308  1.00  0.00    -0.189 OA
HETATM  106  H   UNL     1      -0.027  -8.741  10.543  1.00  0.00     0.320 HD
ENDBRANCH  99 102
ENDBRANCH  93  96
ENDBRANCH  91  93
ENDBRANCH  86  91
BRANCH  87 107
HETATM  107  O   UNL     1      -1.701  -1.238  15.888  1.00  0.00    -0.391 OA
HETATM  108  H   UNL     1      -1.950  -2.055  15.449  1.00  0.00     0.210 HD
ENDBRANCH  87 107
ENDBRANCH  81  82
ENDBRANCH  75  81
BRANCH  76 109
HETATM  109  N   UNL     1      -1.884   3.048  16.234  1.00  0.00    -0.208 NA
HETATM  110  H   UNL     1      -1.826   2.643  17.157  1.00  0.00     0.140 HD
BRANCH 109 111
HETATM  111  S   UNL     1      -3.278   2.324  15.523  1.00  0.00     0.215 S 
HETATM  112  O   UNL     1      -4.319   3.451  14.838  1.00  0.00    -0.211 OA
HETATM  113  O   UNL     1      -2.790   1.206  14.367  1.00  0.00    -0.211 OA
BRANCH 111 114
HETATM  114  C   UNL     1      -4.142   1.454  16.853  1.00  0.00     0.134 C 
HETATM  115  C   UNL     1      -4.656   0.083  16.393  1.00  0.00     0.024 C 
HETATM  116  C   UNL     1      -5.389  -0.657  17.517  1.00  0.00     0.018 C 
HETATM  117  C   UNL     1      -6.565   0.164  18.055  1.00  0.00     0.240 C 
HETATM  118  C   UNL     1      -6.065   1.536  18.534  1.00  0.00     0.032 C 
HETATM  119  C   UNL     1      -5.301   2.280  17.432  1.00  0.00     0.018 C 
BRANCH 117 120
HETATM  120  N   UNL     1      -7.238  -0.574  19.144  1.00  0.00     0.133 N 
HETATM  121  C   UNL     1      -8.712  -0.570  19.043  1.00  0.00     0.352 C 
HETATM  122  C   UNL     1      -9.208  -1.511  17.939  1.00  0.00     0.085 C 
HETATM  123  O   UNL     1      -9.477  -0.783  20.210  1.00  0.00    -0.189 OA
HETATM  124  H   UNL     1      -6.965  -0.164  20.026  1.00  0.00     0.320 HD
ENDBRANCH 117 120
ENDBRANCH 111 114
ENDBRANCH 109 111
ENDBRANCH  76 109
BRANCH  77 125
HETATM  125  O   UNL     1      -0.064   5.047  15.720  1.00  0.00    -0.391 OA
HETATM  126  H   UNL     1      -0.571   4.781  16.490  1.00  0.00     0.210 HD
ENDBRANCH  77 125
ENDBRANCH  71  72
ENDBRANCH   4  71
TORSDOF 40
ENDMDL
MODEL 7
REMARK VINA RESULT:      -8.6      3.279      8.911
REMARK WARNING: 32 MAX_TORS EXCEEDED!!!
REMARK  40 active torsions:
REMARK  status: ('A' for Active; 'I' for Inactive)
REMARK    1  A    between atoms: C_1  and  O_123 
REMARK    2  A    between atoms: C_2  and  C_6 
REMARK    3  A    between atoms: C_3  and  O_10 
REMARK    4  A    between atoms: C_4  and  N_12 
REMARK    5  A    between atoms: C_5  and  O_124 
REMARK    6  A    between atoms: C_6  and  O_7 
REMARK    7  A    between atoms: N_12  and  S_13 
REMARK    8  A    between atoms: S_13  and  C_17 
REMARK    9  A    between atoms: C_20  and  N_23 
REMARK       I    between atoms: N_23  and  C_24 
REMARK   10  A    between atoms: O_29  and  C_33 
REMARK   11  A    between atoms: O_30  and  C_34 
REMARK   12  A    between atoms: C_31  and  C_34 
REMARK   13  A    between atoms: C_36  and  O_124 
REMARK   14  A    between atoms: N_37  and  C_40 
REMARK   15  A    between atoms: C_38  and  O_125 
REMARK   16  A    between atoms: O_42  and  C_46 
REMARK   17  A    between atoms: O_43  and  C_47 
REMARK   18  A    between atoms: C_44  and  C_47 
REMARK   19  A    between atoms: C_49  and  O_125 
REMARK   20  A    between atoms: N_50  and  S_61 
REMARK   21  A    between atoms: N_50  and  C_53 
REMARK   22  A    between atoms: C_51  and  O_126 
REMARK   23  A    between atoms: C_56  and  N_63 
REMARK   24  A    between atoms: C_59  and  S_61 
REMARK       I    between atoms: C_62  and  N_63 
REMARK   25  A    between atoms: O_69  and  C_73 
REMARK   26  A    between atoms: O_70  and  C_74 
REMARK   27  A    between atoms: C_71  and  C_74 
REMARK   28  A    between atoms: C_76  and  O_126 
REMARK   29  A    between atoms: N_77  and  S_88 
REMARK   30  A    between atoms: N_77  and  C_80 
REMARK   31  A    between atoms: C_83  and  N_90 
REMARK   32  A    between atoms: C_86  and  S_88 
REMARK       I    between atoms: C_89  and  N_90 
REMARK   33  A    between atoms: O_96  and  C_100 
REMARK   34  A    between atoms: O_97  and  C_101 
REMARK   35  A    between atoms: C_98  and  C_101 
REMARK   36  A    between atoms: N_104  and  S_115 
REMARK   37  A    between atoms: N_104  and  C_107 
REMARK   38  A    between atoms: C_105  and  O_123 
REMARK   39  A    between atoms: C_110  and  N_117 
REMARK   40  A    between atoms: C_113  and  S_115 
REMARK       I    between atoms: C_116  and  N_117 
ROOT
HETATM    1  C   UNL     1       0.372  -1.011  13.220  1.00  0.00     0.179 C 
HETATM    2  C   UNL     1       1.877   0.482  14.625  1.00  0.00     0.187 C 
HETATM    3  C   UNL     1       0.615   0.429  13.742  1.00  0.00     0.186 C 
HETATM    4  C   UNL     1       0.861  -1.702  15.535  1.00  0.00     0.296 C 
HETATM    5  O   UNL     1       0.819  -2.017  14.140  1.00  0.00    -0.349 OA
HETATM    6  C   UNL     1       1.658  -0.418  15.857  1.00  0.00     0.303 C 
ENDROOT
BRANCH   3   7
HETATM    7  O   UNL     1       0.607   1.458  12.750  1.00  0.00    -0.349 OA
BRANCH   7   8
HETATM    8  C   UNL     1       1.266   2.680  13.058  1.00  0.00     0.282 C 
HETATM    9  C   UNL     1       0.252   3.735  13.513  1.00  0.00     0.157 C 
HETATM   10  C   UNL     1       0.984   5.083  13.628  1.00  0.00     0.173 C 
HETATM   11  C   UNL     1       1.680   5.392  12.282  1.00  0.00     0.186 C 
HETATM   12  C   UNL     1       2.586   4.223  11.828  1.00  0.00     0.179 C 
HETATM   13  O   UNL     1       1.829   3.019  11.803  1.00  0.00    -0.349 OA
BRANCH   9  14
HETATM   14  N   UNL     1      -0.346   3.323  14.799  1.00  0.00    -0.208 NA
HETATM   15  H   UNL     1      -0.566   2.338  14.760  1.00  0.00     0.140 HD
BRANCH  14  16
HETATM   16  S   UNL     1      -1.860   4.110  15.067  1.00  0.00     0.215 S 
HETATM   17  O   UNL     1      -1.856   5.043  16.464  1.00  0.00    -0.211 OA
HETATM   18  O   UNL     1      -2.244   5.064  13.738  1.00  0.00    -0.211 OA
BRANCH  16  19
HETATM   19  C   UNL     1      -3.113   2.818  15.235  1.00  0.00     0.134 C 
HETATM   20  C   UNL     1      -4.021   3.068  16.445  1.00  0.00     0.024 C 
HETATM   21  C   UNL     1      -5.100   1.990  16.578  1.00  0.00     0.018 C 
HETATM   22  C   UNL     1      -4.476   0.596  16.700  1.00  0.00     0.240 C 
HETATM   23  C   UNL     1      -3.574   0.327  15.485  1.00  0.00     0.032 C 
HETATM   24  C   UNL     1      -2.502   1.411  15.325  1.00  0.00     0.018 C 
BRANCH  22  25
HETATM   25  N   UNL     1      -5.538  -0.425  16.833  1.00  0.00     0.133 N 
HETATM   26  C   UNL     1      -5.476  -1.226  18.076  1.00  0.00     0.352 C 
HETATM   27  O   UNL     1      -6.276  -2.384  18.171  1.00  0.00    -0.189 OA
HETATM   28  C   UNL     1      -5.660  -0.382  19.342  1.00  0.00     0.085 C 
HETATM   29  H   UNL     1      -5.487  -1.051  16.042  1.00  0.00     0.320 HD
ENDBRANCH  22  25
ENDBRANCH  16  19
ENDBRANCH  14  16
ENDBRANCH   9  14
BRANCH  10  30
HETATM   30  O   UNL     1       1.883   4.993  14.718  1.00  0.00    -0.391 OA
HETATM   31  H   UNL     1       1.386   5.107  15.531  1.00  0.00     0.210 HD
ENDBRANCH  10  30
BRANCH  11  32
HETATM   32  O   UNL     1       2.289   6.688  12.262  1.00  0.00    -0.349 OA
BRANCH  32  33
HETATM   33  C   UNL     1       1.431   7.821  12.337  1.00  0.00     0.281 C 
HETATM   34  O   UNL     1       2.220   8.720  13.098  1.00  0.00    -0.352 OA
HETATM   35  C   UNL     1       1.530   9.926  13.382  1.00  0.00     0.150 C 
HETATM   36  C   UNL     1       1.234  10.664  12.064  1.00  0.00     0.067 C 
HETATM   37  C   UNL     1       0.460   9.763  11.087  1.00  0.00     0.144 C 
HETATM   38  C   UNL     1       1.141   8.388  10.939  1.00  0.00     0.155 C 
BRANCH  35  39
HETATM   39  C   UNL     1       2.390  10.795  14.307  1.00  0.00     0.196 C 
BRANCH  39  40
HETATM   40  O   UNL     1       2.229  10.380  15.648  1.00  0.00    -0.398 OA
HETATM   41  H   UNL     1       1.698  11.033  16.107  1.00  0.00     0.209 HD
ENDBRANCH  39  40
ENDBRANCH  35  39
BRANCH  37  42
HETATM   42  O   UNL     1      -0.871   9.593  11.534  1.00  0.00    -0.394 OA
HETATM   43  H   UNL     1      -1.440   9.494  10.766  1.00  0.00     0.210 HD
ENDBRANCH  37  42
BRANCH  38  44
HETATM   44  N   UNL     1       0.294   7.438  10.190  1.00  0.00    -0.208 NA
HETATM   45  H   UNL     1       0.769   6.550  10.130  1.00  0.00     0.140 HD
BRANCH  44  46
HETATM   46  S   UNL     1       0.042   7.918   8.551  1.00  0.00     0.215 S 
HETATM   47  O   UNL     1      -1.320   8.883   8.359  1.00  0.00    -0.211 OA
HETATM   48  O   UNL     1       1.403   8.716   7.976  1.00  0.00    -0.211 OA
BRANCH  46  49
HETATM   49  C   UNL     1      -0.200   6.402   7.592  1.00  0.00     0.134 C 
HETATM   50  C   UNL     1       0.633   6.414   6.302  1.00  0.00     0.024 C 
HETATM   51  C   UNL     1       0.445   5.130   5.489  1.00  0.00     0.018 C 
HETATM   52  C   UNL     1      -1.031   4.896   5.141  1.00  0.00     0.240 C 
HETATM   53  C   UNL     1      -1.866   4.867   6.427  1.00  0.00     0.032 C 
HETATM   54  C   UNL     1      -1.677   6.143   7.258  1.00  0.00     0.018 C 
BRANCH  52  55
HETATM   55  N   UNL     1      -1.218   3.640   4.381  1.00  0.00     0.133 N 
HETATM   56  C   UNL     1      -1.243   3.823   2.914  1.00  0.00     0.352 C 
HETATM   57  C   UNL     1      -2.417   4.687   2.446  1.00  0.00     0.085 C 
HETATM   58  O   UNL     1      -1.135   2.693   2.077  1.00  0.00    -0.189 OA
HETATM   59  H   UNL     1      -0.469   3.005   4.618  1.00  0.00     0.320 HD
ENDBRANCH  52  55
ENDBRANCH  46  49
ENDBRANCH  44  46
ENDBRANCH  38  44
ENDBRANCH  32  33
ENDBRANCH  11  32
BRANCH  12  60
HETATM   60  C   UNL     1       3.123   4.429  10.405  1.00  0.00     0.198 C 
BRANCH  60  61
HETATM   61  O   UNL     1       2.169   5.117   9.625  1.00  0.00    -0.398 OA
HETATM   62  H   UNL     1       1.622   4.470   9.173  1.00  0.00     0.209 HD
ENDBRANCH  60  61
ENDBRANCH  12  60
ENDBRANCH   7   8
ENDBRANCH   3   7
BRANCH   1  63
HETATM   63  C   UNL     1      -1.097  -1.211  12.818  1.00  0.00     0.198 C 
BRANCH  63  64
HETATM   64  O   UNL     1      -1.316  -2.556  12.449  1.00  0.00    -0.398 OA
HETATM   65  H   UNL     1      -1.864  -2.970  13.119  1.00  0.00     0.209 HD
ENDBRANCH  63  64
ENDBRANCH   1  63
BRANCH   2  66
HETATM   66  O   UNL     1       3.037   0.056  13.932  1.00  0.00    -0.391 OA
HETATM   67  H   UNL     1       3.094   0.544  13.107  1.00  0.00     0.210 HD
ENDBRANCH   2  66
BRANCH   6  68
HETATM   68  N   UNL     1       2.940  -0.753  16.500  1.00  0.00     0.090 N 
HETATM   69  H   UNL     1       2.779  -1.392  17.266  1.00  0.00     0.313 HD
HETATM   70  H   UNL     1       3.554  -1.183  15.824  1.00  0.00     0.313 HD
ENDBRANCH   6  68
BRANCH   4  71
HETATM   71  O   UNL     1      -0.520  -1.545  15.859  1.00  0.00    -0.348 OA
BRANCH  71  72
HETATM   72  C   UNL     1      -1.164  -2.614  16.558  1.00  0.00     0.186 C 
HETATM   73  C   UNL     1      -2.086  -2.161  17.713  1.00  0.00     0.179 C 
HETATM   74  O   UNL     1      -2.512  -3.312  18.426  1.00  0.00    -0.349 OA
HETATM   75  C   UNL     1      -3.274  -4.208  17.636  1.00  0.00     0.282 C 
HETATM   76  C   UNL     1      -2.429  -4.794  16.492  1.00  0.00     0.157 C 
HETATM   77  C   UNL     1      -1.875  -3.635  15.640  1.00  0.00     0.173 C 
BRANCH  73  78
HETATM   78  C   UNL     1      -1.348  -1.254  18.707  1.00  0.00     0.198 C 
BRANCH  78  79
HETATM   79  O   UNL     1      -0.359  -1.989  19.396  1.00  0.00    -0.398 OA
HETATM   80  H   UNL     1       0.487  -1.831  18.972  1.00  0.00     0.209 HD
ENDBRANCH  78  79
ENDBRANCH  73  78
BRANCH  75  81
HETATM   81  O   UNL     1      -3.596  -5.211  18.593  1.00  0.00    -0.349 OA
BRANCH  81  82
HETATM   82  C   UNL     1      -3.031  -5.093  19.902  1.00  0.00     0.186 C 
HETATM   83  C   UNL     1      -4.017  -5.251  21.085  1.00  0.00     0.176 C 
HETATM   84  O   UNL     1      -3.335  -5.023  22.317  1.00  0.00    -0.379 OA
HETATM   85  C   UNL     1      -2.217  -5.872  22.540  1.00  0.00     0.191 C 
HETATM   86  C   UNL     1      -1.154  -5.669  21.448  1.00  0.00     0.126 C 
HETATM   87  C   UNL     1      -1.784  -5.985  20.081  1.00  0.00     0.170 C 
BRANCH  83  88
HETATM   88  C   UNL     1      -5.151  -4.218  21.013  1.00  0.00     0.198 C 
BRANCH  88  89
HETATM   89  O   UNL     1      -6.042  -4.546  19.969  1.00  0.00    -0.398 OA
HETATM   90  H   UNL     1      -6.900  -4.740  20.352  1.00  0.00     0.209 HD
ENDBRANCH  88  89
ENDBRANCH  83  88
BRANCH  86  91
HETATM   91  N   UNL     1       0.035  -6.504  21.727  1.00  0.00    -0.210 NA
HETATM   92  H   UNL     1       0.288  -6.392  22.698  1.00  0.00     0.140 HD
BRANCH  91  93
HETATM   93  S   UNL     1       1.414  -5.958  20.836  1.00  0.00     0.215 S 
HETATM   94  O   UNL     1       1.240  -4.384  20.274  1.00  0.00    -0.211 OA
HETATM   95  O   UNL     1       2.804  -6.071  21.773  1.00  0.00    -0.211 OA
BRANCH  93  96
HETATM   96  C   UNL     1       1.626  -7.036  19.399  1.00  0.00     0.134 C 
HETATM   97  C   UNL     1       2.810  -7.998  19.562  1.00  0.00     0.024 C 
HETATM   98  C   UNL     1       2.947  -8.922  18.349  1.00  0.00     0.018 C 
HETATM   99  C   UNL     1       3.115  -8.128  17.045  1.00  0.00     0.240 C 
HETATM  100  C   UNL     1       1.932  -7.167  16.872  1.00  0.00     0.032 C 
HETATM  101  C   UNL     1       1.766  -6.247  18.089  1.00  0.00     0.018 C 
BRANCH  99 102
HETATM  102  N   UNL     1       3.215  -9.026  15.875  1.00  0.00     0.133 N 
HETATM  103  C   UNL     1       4.422  -9.879  15.887  1.00  0.00     0.352 C 
HETATM  104  C   UNL     1       5.709  -9.065  15.743  1.00  0.00     0.085 C 
HETATM  105  O   UNL     1       4.482 -10.997  15.029  1.00  0.00    -0.189 OA
HETATM  106  H   UNL     1       2.396  -9.615  15.848  1.00  0.00     0.320 HD
ENDBRANCH  99 102
ENDBRANCH  93  96
ENDBRANCH  91  93
ENDBRANCH  86  91
BRANCH  87 107
HETATM  107  O   UNL     1      -2.070  -7.370  20.030  1.00  0.00    -0.391 OA
HETATM  108  H   UNL     1      -3.023  -7.482  19.990  1.00  0.00     0.210 HD
ENDBRANCH  87 107
ENDBRANCH  81  82
ENDBRANCH  75  81
BRANCH  76 109
HETATM  109  N   UNL     1      -3.262  -5.703  15.681  1.00  0.00    -0.208 NA
HETATM  110  H   UNL     1      -4.192  -5.739  16.073  1.00  0.00     0.140 HD
BRANCH 109 111
HETATM  111  S   UNL     1      -2.704  -7.334  15.731  1.00  0.00     0.215 S 
HETATM  112  O   UNL     1      -1.625  -7.614  16.989  1.00  0.00    -0.211 OA
HETATM  113  O   UNL     1      -4.024  -8.365  15.857  1.00  0.00    -0.211 OA
BRANCH 111 114
HETATM  114  C   UNL     1      -1.867  -7.641  14.156  1.00  0.00     0.134 C 
HETATM  115  C   UNL     1      -0.492  -6.963  14.104  1.00  0.00     0.024 C 
HETATM  116  C   UNL     1       0.220  -7.220  12.772  1.00  0.00     0.018 C 
HETATM  117  C   UNL     1      -0.621  -6.739  11.585  1.00  0.00     0.240 C 
HETATM  118  C   UNL     1      -1.998  -7.419  11.613  1.00  0.00     0.032 C 
HETATM  119  C   UNL     1      -2.714  -7.199  12.952  1.00  0.00     0.018 C 
BRANCH 117 120
HETATM  120  N   UNL     1       0.090  -7.014  10.319  1.00  0.00     0.133 N 
HETATM  121  C   UNL     1      -0.702  -6.701   9.112  1.00  0.00     0.352 C 
HETATM  122  C   UNL     1      -0.794  -5.191   8.868  1.00  0.00     0.085 C 
HETATM  123  O   UNL     1      -0.380  -7.346   7.898  1.00  0.00    -0.189 OA
HETATM  124  H   UNL     1       0.348  -7.991  10.302  1.00  0.00     0.320 HD
ENDBRANCH 117 120
ENDBRANCH 111 114
ENDBRANCH 109 111
ENDBRANCH  76 109
BRANCH  77 125
HETATM  125  O   UNL     1      -2.958  -3.077  14.919  1.00  0.00    -0.391 OA
HETATM  126  H   UNL     1      -3.057  -3.562  14.098  1.00  0.00     0.210 HD
ENDBRANCH  77 125
ENDBRANCH  71  72
ENDBRANCH   4  71
TORSDOF 40
ENDMDL
MODEL 8
REMARK VINA RESULT:      -8.4     15.514     23.873
REMARK WARNING: 32 MAX_TORS EXCEEDED!!!
REMARK  40 active torsions:
REMARK  status: ('A' for Active; 'I' for Inactive)
REMARK    1  A    between atoms: C_1  and  O_123 
REMARK    2  A    between atoms: C_2  and  C_6 
REMARK    3  A    between atoms: C_3  and  O_10 
REMARK    4  A    between atoms: C_4  and  N_12 
REMARK    5  A    between atoms: C_5  and  O_124 
REMARK    6  A    between atoms: C_6  and  O_7 
REMARK    7  A    between atoms: N_12  and  S_13 
REMARK    8  A    between atoms: S_13  and  C_17 
REMARK    9  A    between atoms: C_20  and  N_23 
REMARK       I    between atoms: N_23  and  C_24 
REMARK   10  A    between atoms: O_29  and  C_33 
REMARK   11  A    between atoms: O_30  and  C_34 
REMARK   12  A    between atoms: C_31  and  C_34 
REMARK   13  A    between atoms: C_36  and  O_124 
REMARK   14  A    between atoms: N_37  and  C_40 
REMARK   15  A    between atoms: C_38  and  O_125 
REMARK   16  A    between atoms: O_42  and  C_46 
REMARK   17  A    between atoms: O_43  and  C_47 
REMARK   18  A    between atoms: C_44  and  C_47 
REMARK   19  A    between atoms: C_49  and  O_125 
REMARK   20  A    between atoms: N_50  and  S_61 
REMARK   21  A    between atoms: N_50  and  C_53 
REMARK   22  A    between atoms: C_51  and  O_126 
REMARK   23  A    between atoms: C_56  and  N_63 
REMARK   24  A    between atoms: C_59  and  S_61 
REMARK       I    between atoms: C_62  and  N_63 
REMARK   25  A    between atoms: O_69  and  C_73 
REMARK   26  A    between atoms: O_70  and  C_74 
REMARK   27  A    between atoms: C_71  and  C_74 
REMARK   28  A    between atoms: C_76  and  O_126 
REMARK   29  A    between atoms: N_77  and  S_88 
REMARK   30  A    between atoms: N_77  and  C_80 
REMARK   31  A    between atoms: C_83  and  N_90 
REMARK   32  A    between atoms: C_86  and  S_88 
REMARK       I    between atoms: C_89  and  N_90 
REMARK   33  A    between atoms: O_96  and  C_100 
REMARK   34  A    between atoms: O_97  and  C_101 
REMARK   35  A    between atoms: C_98  and  C_101 
REMARK   36  A    between atoms: N_104  and  S_115 
REMARK   37  A    between atoms: N_104  and  C_107 
REMARK   38  A    between atoms: C_105  and  O_123 
REMARK   39  A    between atoms: C_110  and  N_117 
REMARK   40  A    between atoms: C_113  and  S_115 
REMARK       I    between atoms: C_116  and  N_117 
ROOT
HETATM    1  C   UNL     1      11.721 -12.777   7.571  1.00  0.00     0.179 C 
HETATM    2  C   UNL     1      12.928 -13.557   9.669  1.00  0.00     0.187 C 
HETATM    3  C   UNL     1      11.944 -13.957   8.552  1.00  0.00     0.186 C 
HETATM    4  C   UNL     1      14.169 -12.513   7.671  1.00  0.00     0.296 C 
HETATM    5  O   UNL     1      12.878 -11.941   7.437  1.00  0.00    -0.349 OA
HETATM    6  C   UNL     1      14.292 -13.229   9.033  1.00  0.00     0.303 C 
ENDROOT
BRANCH   3   7
HETATM    7  O   UNL     1      10.759 -14.567   9.069  1.00  0.00    -0.349 OA
BRANCH   7   8
HETATM    8  C   UNL     1       9.514 -14.179   8.504  1.00  0.00     0.282 C 
HETATM    9  C   UNL     1       8.632 -13.505   9.562  1.00  0.00     0.157 C 
HETATM   10  C   UNL     1       7.232 -13.300   8.958  1.00  0.00     0.173 C 
HETATM   11  C   UNL     1       6.703 -14.660   8.445  1.00  0.00     0.186 C 
HETATM   12  C   UNL     1       7.709 -15.336   7.482  1.00  0.00     0.179 C 
HETATM   13  O   UNL     1       8.979 -15.433   8.116  1.00  0.00    -0.349 OA
BRANCH   9  14
HETATM   14  N   UNL     1       9.246 -12.227   9.973  1.00  0.00    -0.208 NA
HETATM   15  H   UNL     1      10.219 -12.225   9.702  1.00  0.00     0.140 HD
BRANCH  14  16
HETATM   16  S   UNL     1       9.260 -12.065  11.693  1.00  0.00     0.215 S 
HETATM   17  O   UNL     1      10.435 -10.987  12.223  1.00  0.00    -0.211 OA
HETATM   18  O   UNL     1       7.745 -11.575  12.228  1.00  0.00    -0.211 OA
BRANCH  16  19
HETATM   19  C   UNL     1       9.618 -13.698  12.382  1.00  0.00     0.134 C 
HETATM   20  C   UNL     1       8.445 -14.228  13.215  1.00  0.00     0.024 C 
HETATM   21  C   UNL     1       8.734 -15.621  13.781  1.00  0.00     0.018 C 
HETATM   22  C   UNL     1      10.000 -15.616  14.644  1.00  0.00     0.240 C 
HETATM   23  C   UNL     1      11.186 -15.099  13.815  1.00  0.00     0.032 C 
HETATM   24  C   UNL     1      10.904 -13.714  13.222  1.00  0.00     0.018 C 
BRANCH  22  25
HETATM   25  N   UNL     1      10.251 -16.970  15.182  1.00  0.00     0.133 N 
HETATM   26  C   UNL     1       9.829 -18.078  14.297  1.00  0.00     0.352 C 
HETATM   27  O   UNL     1       9.786 -19.384  14.826  1.00  0.00    -0.189 OA
HETATM   28  C   UNL     1      10.585 -18.100  12.963  1.00  0.00     0.085 C 
HETATM   29  H   UNL     1       9.770 -17.061  16.066  1.00  0.00     0.320 HD
ENDBRANCH  22  25
ENDBRANCH  16  19
ENDBRANCH  14  16
ENDBRANCH   9  14
BRANCH  10  30
HETATM   30  O   UNL     1       7.342 -12.320   7.941  1.00  0.00    -0.391 OA
HETATM   31  H   UNL     1       8.052 -12.577   7.348  1.00  0.00     0.210 HD
ENDBRANCH  10  30
BRANCH  11  32
HETATM   32  O   UNL     1       5.354 -14.583   7.971  1.00  0.00    -0.349 OA
BRANCH  32  33
HETATM   33  C   UNL     1       5.156 -14.299   6.591  1.00  0.00     0.281 C 
HETATM   34  O   UNL     1       4.638 -15.532   6.122  1.00  0.00    -0.352 OA
HETATM   35  C   UNL     1       4.429 -15.525   4.719  1.00  0.00     0.150 C 
HETATM   36  C   UNL     1       3.355 -14.478   4.372  1.00  0.00     0.067 C 
HETATM   37  C   UNL     1       3.739 -13.091   4.914  1.00  0.00     0.144 C 
HETATM   38  C   UNL     1       4.136 -13.165   6.401  1.00  0.00     0.155 C 
BRANCH  35  39
HETATM   39  C   UNL     1       3.990 -16.921   4.266  1.00  0.00     0.196 C 
BRANCH  39  40
HETATM   40  O   UNL     1       2.791 -17.286   4.918  1.00  0.00    -0.398 OA
HETATM   41  H   UNL     1       2.680 -16.725   5.688  1.00  0.00     0.209 HD
ENDBRANCH  39  40
ENDBRANCH  35  39
BRANCH  37  42
HETATM   42  O   UNL     1       4.806 -12.552   4.159  1.00  0.00    -0.394 OA
HETATM   43  H   UNL     1       4.559 -12.561   3.231  1.00  0.00     0.210 HD
ENDBRANCH  37  42
BRANCH  38  44
HETATM   44  N   UNL     1       4.722 -11.893   6.872  1.00  0.00    -0.208 NA
HETATM   45  H   UNL     1       5.677 -12.057   7.157  1.00  0.00     0.140 HD
BRANCH  44  46
HETATM   46  S   UNL     1       3.938 -11.279   8.282  1.00  0.00     0.215 S 
HETATM   47  O   UNL     1       2.800 -12.343   8.908  1.00  0.00    -0.211 OA
HETATM   48  O   UNL     1       5.084 -10.901   9.451  1.00  0.00    -0.211 OA
BRANCH  46  49
HETATM   49  C   UNL     1       3.082  -9.762   7.787  1.00  0.00     0.134 C 
HETATM   50  C   UNL     1       1.917  -9.440   8.734  1.00  0.00     0.024 C 
HETATM   51  C   UNL     1       1.194  -8.151   8.331  1.00  0.00     0.018 C 
HETATM   52  C   UNL     1       0.674  -8.226   6.889  1.00  0.00     0.240 C 
HETATM   53  C   UNL     1       1.837  -8.532   5.937  1.00  0.00     0.032 C 
HETATM   54  C   UNL     1       2.578  -9.814   6.337  1.00  0.00     0.018 C 
BRANCH  52  55
HETATM   55  N   UNL     1       0.001  -6.971   6.489  1.00  0.00     0.133 N 
HETATM   56  C   UNL     1      -1.307  -7.173   5.830  1.00  0.00     0.352 C 
HETATM   57  C   UNL     1      -1.193  -7.939   4.510  1.00  0.00     0.085 C 
HETATM   58  O   UNL     1      -2.167  -6.070   5.654  1.00  0.00    -0.189 OA
HETATM   59  H   UNL     1      -0.133  -6.399   7.310  1.00  0.00     0.320 HD
ENDBRANCH  52  55
ENDBRANCH  46  49
ENDBRANCH  44  46
ENDBRANCH  38  44
ENDBRANCH  32  33
ENDBRANCH  11  32
BRANCH  12  60
HETATM   60  C   UNL     1       7.291 -16.769   7.125  1.00  0.00     0.198 C 
BRANCH  60  61
HETATM   61  O   UNL     1       6.343 -17.240   8.058  1.00  0.00    -0.398 OA
HETATM   62  H   UNL     1       6.709 -17.144   8.940  1.00  0.00     0.209 HD
ENDBRANCH  60  61
ENDBRANCH  12  60
ENDBRANCH   7   8
ENDBRANCH   3   7
BRANCH   1  63
HETATM   63  C   UNL     1      11.213 -13.278   6.211  1.00  0.00     0.198 C 
BRANCH  63  64
HETATM   64  O   UNL     1      12.059 -12.815   5.181  1.00  0.00    -0.398 OA
HETATM   65  H   UNL     1      12.046 -11.855   5.185  1.00  0.00     0.209 HD
ENDBRANCH  63  64
ENDBRANCH   1  63
BRANCH   2  66
HETATM   66  O   UNL     1      12.473 -12.440  10.411  1.00  0.00    -0.391 OA
HETATM   67  H   UNL     1      11.516 -12.406  10.354  1.00  0.00     0.210 HD
ENDBRANCH   2  66
BRANCH   6  68
HETATM   68  N   UNL     1      15.129 -12.443   9.958  1.00  0.00     0.090 N 
HETATM   69  H   UNL     1      15.003 -11.458   9.775  1.00  0.00     0.313 HD
HETATM   70  H   UNL     1      14.862 -12.648  10.910  1.00  0.00     0.313 HD
ENDBRANCH   6  68
BRANCH   4  71
HETATM   71  O   UNL     1      14.299 -13.436   6.591  1.00  0.00    -0.348 OA
BRANCH  71  72
HETATM   72  C   UNL     1      15.611 -13.670   6.070  1.00  0.00     0.186 C 
HETATM   73  C   UNL     1      15.644 -14.099   4.586  1.00  0.00     0.179 C 
HETATM   74  O   UNL     1      16.974 -14.469   4.255  1.00  0.00    -0.349 OA
HETATM   75  C   UNL     1      17.899 -13.402   4.382  1.00  0.00     0.282 C 
HETATM   76  C   UNL     1      18.014 -12.942   5.844  1.00  0.00     0.157 C 
HETATM   77  C   UNL     1      16.617 -12.529   6.347  1.00  0.00     0.173 C 
BRANCH  73  78
HETATM   78  C   UNL     1      14.751 -15.320   4.327  1.00  0.00     0.198 C 
BRANCH  78  79
HETATM   79  O   UNL     1      15.456 -16.289   3.580  1.00  0.00    -0.398 OA
HETATM   80  H   UNL     1      16.376 -16.023   3.529  1.00  0.00     0.209 HD
ENDBRANCH  78  79
ENDBRANCH  73  78
BRANCH  75  81
HETATM   81  O   UNL     1      19.101 -14.031   3.951  1.00  0.00    -0.349 OA
BRANCH  81  82
HETATM   82  C   UNL     1      19.728 -13.536   2.764  1.00  0.00     0.186 C 
HETATM   83  C   UNL     1      21.273 -13.615   2.728  1.00  0.00     0.176 C 
HETATM   84  O   UNL     1      21.760 -13.009   1.532  1.00  0.00    -0.379 OA
HETATM   85  C   UNL     1      21.248 -13.572   0.332  1.00  0.00     0.191 C 
HETATM   86  C   UNL     1      19.720 -13.416   0.268  1.00  0.00     0.126 C 
HETATM   87  C   UNL     1      19.100 -14.126   1.484  1.00  0.00     0.170 C 
BRANCH  83  88
HETATM   88  C   UNL     1      21.903 -12.845   3.899  1.00  0.00     0.198 C 
BRANCH  88  89
HETATM   89  O   UNL     1      21.922 -13.652   5.057  1.00  0.00    -0.398 OA
HETATM   90  H   UNL     1      22.638 -13.355   5.621  1.00  0.00     0.209 HD
ENDBRANCH  88  89
ENDBRANCH  83  88
BRANCH  86  91
HETATM   91  N   UNL     1      19.204 -13.941  -1.015  1.00  0.00    -0.210 NA
HETATM   92  H   UNL     1      19.856 -13.702  -1.748  1.00  0.00     0.140 HD
BRANCH  91  93
HETATM   93  S   UNL     1      17.721 -13.170  -1.463  1.00  0.00     0.215 S 
HETATM   94  O   UNL     1      16.807 -14.092  -2.529  1.00  0.00    -0.211 OA
HETATM   95  O   UNL     1      16.807 -12.814  -0.098  1.00  0.00    -0.211 OA
BRANCH  93  96
HETATM   96  C   UNL     1      18.119 -11.608  -2.285  1.00  0.00     0.134 C 
HETATM   97  C   UNL     1      17.182 -11.316  -3.464  1.00  0.00     0.024 C 
HETATM   98  C   UNL     1      17.517  -9.974  -4.121  1.00  0.00     0.018 C 
HETATM   99  C   UNL     1      18.974  -9.927  -4.607  1.00  0.00     0.240 C 
HETATM  100  C   UNL     1      19.917 -10.214  -3.432  1.00  0.00     0.032 C 
HETATM  101  C   UNL     1      19.582 -11.545  -2.748  1.00  0.00     0.018 C 
BRANCH  99 102
HETATM  102  N   UNL     1      19.299  -8.618  -5.211  1.00  0.00     0.133 N 
HETATM  103  C   UNL     1      19.773  -7.616  -4.233  1.00  0.00     0.352 C 
HETATM  104  C   UNL     1      18.682  -7.217  -3.237  1.00  0.00     0.085 C 
HETATM  105  O   UNL     1      20.423  -6.454  -4.699  1.00  0.00    -0.189 OA
HETATM  106  H   UNL     1      20.010  -8.753  -5.915  1.00  0.00     0.320 HD
ENDBRANCH  99 102
ENDBRANCH  93  96
ENDBRANCH  91  93
ENDBRANCH  86  91
BRANCH  87 107
HETATM  107  O   UNL     1      19.311 -15.519   1.344  1.00  0.00    -0.391 OA
HETATM  108  H   UNL     1      18.555 -15.979   1.716  1.00  0.00     0.210 HD
ENDBRANCH  87 107
ENDBRANCH  81  82
ENDBRANCH  75  81
BRANCH  76 109
HETATM  109  N   UNL     1      18.968 -11.819   5.932  1.00  0.00    -0.208 NA
HETATM  110  H   UNL     1      19.706 -11.956   5.256  1.00  0.00     0.140 HD
BRANCH 109 111
HETATM  111  S   UNL     1      19.775 -11.752   7.454  1.00  0.00     0.215 S 
HETATM  112  O   UNL     1      19.090 -12.774   8.599  1.00  0.00    -0.211 OA
HETATM  113  O   UNL     1      21.398 -12.129   7.235  1.00  0.00    -0.211 OA
BRANCH 111 114
HETATM  114  C   UNL     1      19.643 -10.044   8.034  1.00  0.00     0.134 C 
HETATM  115  C   UNL     1      18.193  -9.542   7.994  1.00  0.00     0.024 C 
HETATM  116  C   UNL     1      18.076  -8.096   8.484  1.00  0.00     0.018 C 
HETATM  117  C   UNL     1      18.955  -7.152   7.658  1.00  0.00     0.240 C 
HETATM  118  C   UNL     1      20.414  -7.630   7.699  1.00  0.00     0.032 C 
HETATM  119  C   UNL     1      20.548  -9.088   7.241  1.00  0.00     0.018 C 
BRANCH 117 120
HETATM  120  N   UNL     1      18.827  -5.770   8.166  1.00  0.00     0.133 N 
HETATM  121  C   UNL     1      18.866  -4.740   7.107  1.00  0.00     0.352 C 
HETATM  122  C   UNL     1      17.557  -4.693   6.312  1.00  0.00     0.085 C 
HETATM  123  O   UNL     1      19.246  -3.424   7.449  1.00  0.00    -0.189 OA
HETATM  124  H   UNL     1      19.576  -5.599   8.823  1.00  0.00     0.320 HD
ENDBRANCH 117 120
ENDBRANCH 111 114
ENDBRANCH 109 111
ENDBRANCH  76 109
BRANCH  77 125
HETATM  125  O   UNL     1      16.273 -11.314   5.706  1.00  0.00    -0.391 OA
HETATM  126  H   UNL     1      16.730 -11.276   4.863  1.00  0.00     0.210 HD
ENDBRANCH  77 125
ENDBRANCH  71  72
ENDBRANCH   4  71
TORSDOF 40
ENDMDL
MODEL 9
REMARK VINA RESULT:      -8.3     18.481     25.299
REMARK WARNING: 32 MAX_TORS EXCEEDED!!!
REMARK  40 active torsions:
REMARK  status: ('A' for Active; 'I' for Inactive)
REMARK    1  A    between atoms: C_1  and  O_123 
REMARK    2  A    between atoms: C_2  and  C_6 
REMARK    3  A    between atoms: C_3  and  O_10 
REMARK    4  A    between atoms: C_4  and  N_12 
REMARK    5  A    between atoms: C_5  and  O_124 
REMARK    6  A    between atoms: C_6  and  O_7 
REMARK    7  A    between atoms: N_12  and  S_13 
REMARK    8  A    between atoms: S_13  and  C_17 
REMARK    9  A    between atoms: C_20  and  N_23 
REMARK       I    between atoms: N_23  and  C_24 
REMARK   10  A    between atoms: O_29  and  C_33 
REMARK   11  A    between atoms: O_30  and  C_34 
REMARK   12  A    between atoms: C_31  and  C_34 
REMARK   13  A    between atoms: C_36  and  O_124 
REMARK   14  A    between atoms: N_37  and  C_40 
REMARK   15  A    between atoms: C_38  and  O_125 
REMARK   16  A    between atoms: O_42  and  C_46 
REMARK   17  A    between atoms: O_43  and  C_47 
REMARK   18  A    between atoms: C_44  and  C_47 
REMARK   19  A    between atoms: C_49  and  O_125 
REMARK   20  A    between atoms: N_50  and  S_61 
REMARK   21  A    between atoms: N_50  and  C_53 
REMARK   22  A    between atoms: C_51  and  O_126 
REMARK   23  A    between atoms: C_56  and  N_63 
REMARK   24  A    between atoms: C_59  and  S_61 
REMARK       I    between atoms: C_62  and  N_63 
REMARK   25  A    between atoms: O_69  and  C_73 
REMARK   26  A    between atoms: O_70  and  C_74 
REMARK   27  A    between atoms: C_71  and  C_74 
REMARK   28  A    between atoms: C_76  and  O_126 
REMARK   29  A    between atoms: N_77  and  S_88 
REMARK   30  A    between atoms: N_77  and  C_80 
REMARK   31  A    between atoms: C_83  and  N_90 
REMARK   32  A    between atoms: C_86  and  S_88 
REMARK       I    between atoms: C_89  and  N_90 
REMARK   33  A    between atoms: O_96  and  C_100 
REMARK   34  A    between atoms: O_97  and  C_101 
REMARK   35  A    between atoms: C_98  and  C_101 
REMARK   36  A    between atoms: N_104  and  S_115 
REMARK   37  A    between atoms: N_104  and  C_107 
REMARK   38  A    between atoms: C_105  and  O_123 
REMARK   39  A    between atoms: C_110  and  N_117 
REMARK   40  A    between atoms: C_113  and  S_115 
REMARK       I    between atoms: C_116  and  N_117 
ROOT
HETATM    1  C   UNL     1       5.093  16.675  -4.570  1.00  0.00     0.179 C 
HETATM    2  C   UNL     1       7.192  18.092  -4.807  1.00  0.00     0.187 C 
HETATM    3  C   UNL     1       6.642  16.661  -4.645  1.00  0.00     0.186 C 
HETATM    4  C   UNL     1       5.230  18.243  -6.467  1.00  0.00     0.296 C 
HETATM    5  O   UNL     1       4.510  17.737  -5.338  1.00  0.00    -0.349 OA
HETATM    6  C   UNL     1       6.676  18.673  -6.138  1.00  0.00     0.303 C 
ENDROOT
BRANCH   3   7
HETATM    7  O   UNL     1       7.308  15.942  -3.604  1.00  0.00    -0.349 OA
BRANCH   7   8
HETATM    8  C   UNL     1       8.132  14.846  -3.980  1.00  0.00     0.282 C 
HETATM    9  C   UNL     1       9.536  15.004  -3.386  1.00  0.00     0.157 C 
HETATM   10  C   UNL     1      10.437  13.915  -3.993  1.00  0.00     0.173 C 
HETATM   11  C   UNL     1      10.371  14.010  -5.535  1.00  0.00     0.186 C 
HETATM   12  C   UNL     1       8.911  13.974  -6.046  1.00  0.00     0.179 C 
HETATM   13  O   UNL     1       8.154  14.984  -5.390  1.00  0.00    -0.349 OA
BRANCH   9  14
HETATM   14  N   UNL     1       9.464  14.902  -1.915  1.00  0.00    -0.208 NA
HETATM   15  H   UNL     1       8.494  14.861  -1.634  1.00  0.00     0.140 HD
BRANCH  14  16
HETATM   16  S   UNL     1      10.090  16.322  -1.158  1.00  0.00     0.215 S 
HETATM   17  O   UNL     1      10.885  15.980   0.282  1.00  0.00    -0.211 OA
HETATM   18  O   UNL     1      11.127  17.116  -2.214  1.00  0.00    -0.211 OA
BRANCH  16  19
HETATM   19  C   UNL     1       8.685  17.403  -0.802  1.00  0.00     0.134 C 
HETATM   20  C   UNL     1       9.028  18.436   0.279  1.00  0.00     0.024 C 
HETATM   21  C   UNL     1       7.849  19.370   0.567  1.00  0.00     0.018 C 
HETATM   22  C   UNL     1       6.611  18.579   1.003  1.00  0.00     0.240 C 
HETATM   23  C   UNL     1       6.249  17.550  -0.079  1.00  0.00     0.032 C 
HETATM   24  C   UNL     1       7.427  16.621  -0.395  1.00  0.00     0.018 C 
BRANCH  22  25
HETATM   25  N   UNL     1       5.491  19.505   1.280  1.00  0.00     0.133 N 
HETATM   26  C   UNL     1       5.278  20.546   0.252  1.00  0.00     0.352 C 
HETATM   27  O   UNL     1       4.416  21.621   0.551  1.00  0.00    -0.189 OA
HETATM   28  C   UNL     1       4.905  19.968  -1.118  1.00  0.00     0.085 C 
HETATM   29  H   UNL     1       5.658  19.956   2.169  1.00  0.00     0.320 HD
ENDBRANCH  22  25
ENDBRANCH  16  19
ENDBRANCH  14  16
ENDBRANCH   9  14
BRANCH  10  30
HETATM   30  O   UNL     1      10.000  12.665  -3.488  1.00  0.00    -0.391 OA
HETATM   31  H   UNL     1      10.028  12.699  -2.529  1.00  0.00     0.210 HD
ENDBRANCH  10  30
BRANCH  11  32
HETATM   32  O   UNL     1      11.274  13.105  -6.181  1.00  0.00    -0.349 OA
BRANCH  32  33
HETATM   33  C   UNL     1      12.438  13.656  -6.786  1.00  0.00     0.281 C 
HETATM   34  O   UNL     1      13.287  13.819  -5.664  1.00  0.00    -0.352 OA
HETATM   35  C   UNL     1      14.514  14.444  -6.008  1.00  0.00     0.150 C 
HETATM   36  C   UNL     1      15.292  13.533  -6.974  1.00  0.00     0.067 C 
HETATM   37  C   UNL     1      14.446  13.185  -8.210  1.00  0.00     0.144 C 
HETATM   38  C   UNL     1      13.048  12.678  -7.802  1.00  0.00     0.155 C 
BRANCH  35  39
HETATM   39  C   UNL     1      15.326  14.700  -4.734  1.00  0.00     0.196 C 
BRANCH  39  40
HETATM   40  O   UNL     1      15.992  13.518  -4.338  1.00  0.00    -0.398 OA
HETATM   41  H   UNL     1      15.995  12.909  -5.079  1.00  0.00     0.209 HD
ENDBRANCH  39  40
ENDBRANCH  35  39
BRANCH  37  42
HETATM   42  O   UNL     1      14.319  14.317  -9.047  1.00  0.00    -0.394 OA
HETATM   43  H   UNL     1      14.261  14.018  -9.958  1.00  0.00     0.210 HD
ENDBRANCH  37  42
BRANCH  38  44
HETATM   44  N   UNL     1      12.150  12.558  -8.969  1.00  0.00    -0.208 NA
HETATM   45  H   UNL     1      11.293  13.057  -8.777  1.00  0.00     0.140 HD
BRANCH  44  46
HETATM   46  S   UNL     1      11.659  10.931  -9.269  1.00  0.00     0.215 S 
HETATM   47  O   UNL     1      12.930   9.838  -9.157  1.00  0.00    -0.211 OA
HETATM   48  O   UNL     1      10.430  10.502  -8.207  1.00  0.00    -0.211 OA
BRANCH  46  49
HETATM   49  C   UNL     1      11.017  10.880 -10.961  1.00  0.00     0.134 C 
HETATM   50  C   UNL     1      10.332   9.540 -11.262  1.00  0.00     0.024 C 
HETATM   51  C   UNL     1       9.774   9.490 -12.688  1.00  0.00     0.018 C 
HETATM   52  C   UNL     1      10.871   9.749 -13.730  1.00  0.00     0.240 C 
HETATM   53  C   UNL     1      11.548  11.094 -13.443  1.00  0.00     0.032 C 
HETATM   54  C   UNL     1      12.101  11.161 -12.013  1.00  0.00     0.018 C 
BRANCH  52  55
HETATM   55  N   UNL     1      10.328   9.732 -15.105  1.00  0.00     0.133 N 
HETATM   56  C   UNL     1      10.743   8.557 -15.901  1.00  0.00     0.352 C 
HETATM   57  C   UNL     1      12.256   8.500 -16.127  1.00  0.00     0.085 C 
HETATM   58  O   UNL     1      10.082   8.279 -17.115  1.00  0.00    -0.189 OA
HETATM   59  H   UNL     1       9.319   9.752 -15.056  1.00  0.00     0.320 HD
ENDBRANCH  52  55
ENDBRANCH  46  49
ENDBRANCH  44  46
ENDBRANCH  38  44
ENDBRANCH  32  33
ENDBRANCH  11  32
BRANCH  12  60
HETATM   60  C   UNL     1       8.820  14.268  -7.550  1.00  0.00     0.198 C 
BRANCH  60  61
HETATM   61  O   UNL     1       9.070  13.091  -8.287  1.00  0.00    -0.398 OA
HETATM   62  H   UNL     1       8.577  13.135  -9.109  1.00  0.00     0.209 HD
ENDBRANCH  60  61
ENDBRANCH  12  60
ENDBRANCH   7   8
ENDBRANCH   3   7
BRANCH   1  63
HETATM   63  C   UNL     1       4.510  15.305  -4.947  1.00  0.00     0.198 C 
BRANCH  63  64
HETATM   64  O   UNL     1       5.337  14.677  -5.903  1.00  0.00    -0.398 OA
HETATM   65  H   UNL     1       4.791  14.396  -6.640  1.00  0.00     0.209 HD
ENDBRANCH  63  64
ENDBRANCH   1  63
BRANCH   2  66
HETATM   66  O   UNL     1       6.804  18.941  -3.741  1.00  0.00    -0.391 OA
HETATM   67  H   UNL     1       5.953  18.645  -3.412  1.00  0.00     0.210 HD
ENDBRANCH   2  66
BRANCH   6  68
HETATM   68  N   UNL     1       6.796  20.142  -6.154  1.00  0.00     0.090 N 
HETATM   69  H   UNL     1       7.705  20.404  -6.509  1.00  0.00     0.313 HD
HETATM   70  H   UNL     1       6.077  20.532  -6.746  1.00  0.00     0.313 HD
ENDBRANCH   6  68
BRANCH   4  71
HETATM   71  O   UNL     1       5.215  17.135  -7.366  1.00  0.00    -0.348 OA
BRANCH  71  72
HETATM   72  C   UNL     1       4.276  17.167  -8.445  1.00  0.00     0.186 C 
HETATM   73  C   UNL     1       4.916  17.181  -9.852  1.00  0.00     0.179 C 
HETATM   74  O   UNL     1       3.892  17.394 -10.810  1.00  0.00    -0.349 OA
HETATM   75  C   UNL     1       2.918  16.364 -10.825  1.00  0.00     0.282 C 
HETATM   76  C   UNL     1       2.150  16.309  -9.494  1.00  0.00     0.157 C 
HETATM   77  C   UNL     1       3.159  16.103  -8.347  1.00  0.00     0.173 C 
BRANCH  73  78
HETATM   78  C   UNL     1       5.931  18.322 -10.004  1.00  0.00     0.198 C 
BRANCH  78  79
HETATM   79  O   UNL     1       5.282  19.570  -9.877  1.00  0.00    -0.398 OA
HETATM   80  H   UNL     1       5.132  19.924 -10.756  1.00  0.00     0.209 HD
ENDBRANCH  78  79
ENDBRANCH  73  78
BRANCH  75  81
HETATM   81  O   UNL     1       2.071  16.804 -11.881  1.00  0.00    -0.349 OA
BRANCH  81  82
HETATM   82  C   UNL     1       2.205  16.168 -13.156  1.00  0.00     0.186 C 
HETATM   83  C   UNL     1       0.960  16.222 -14.075  1.00  0.00     0.176 C 
HETATM   84  O   UNL     1       1.207  15.477 -15.267  1.00  0.00    -0.379 OA
HETATM   85  C   UNL     1       2.340  15.907 -16.010  1.00  0.00     0.191 C 
HETATM   86  C   UNL     1       3.623  15.765 -15.174  1.00  0.00     0.126 C 
HETATM   87  C   UNL     1       3.479  16.617 -13.901  1.00  0.00     0.170 C 
BRANCH  83  88
HETATM   88  C   UNL     1      -0.264  15.583 -13.403  1.00  0.00     0.198 C 
BRANCH  88  89
HETATM   89  O   UNL     1       0.142  14.525 -12.561  1.00  0.00    -0.398 OA
HETATM   90  H   UNL     1       1.088  14.596 -12.419  1.00  0.00     0.209 HD
ENDBRANCH  88  89
ENDBRANCH  83  88
BRANCH  86  91
HETATM   91  N   UNL     1       4.804  16.147 -15.978  1.00  0.00    -0.210 NA
HETATM   92  H   UNL     1       4.496  16.400 -16.905  1.00  0.00     0.140 HD
BRANCH  91  93
HETATM   93  S   UNL     1       5.872  14.804 -16.209  1.00  0.00     0.215 S 
HETATM   94  O   UNL     1       5.057  13.390 -16.607  1.00  0.00    -0.211 OA
HETATM   95  O   UNL     1       7.008  15.154 -17.396  1.00  0.00    -0.211 OA
BRANCH  93  96
HETATM   96  C   UNL     1       6.760  14.512 -14.661  1.00  0.00     0.134 C 
HETATM   97  C   UNL     1       7.421  15.786 -14.119  1.00  0.00     0.024 C 
HETATM   98  C   UNL     1       8.137  15.520 -12.792  1.00  0.00     0.018 C 
HETATM   99  C   UNL     1       9.198  14.417 -12.929  1.00  0.00     0.240 C 
HETATM  100  C   UNL     1       8.544  13.139 -13.466  1.00  0.00     0.032 C 
HETATM  101  C   UNL     1       7.803  13.391 -14.786  1.00  0.00     0.018 C 
BRANCH  99 102
HETATM  102  N   UNL     1       9.863  14.145 -11.637  1.00  0.00     0.133 N 
HETATM  103  C   UNL     1      10.986  15.060 -11.345  1.00  0.00     0.352 C 
HETATM  104  C   UNL     1      12.151  14.877 -12.320  1.00  0.00     0.085 C 
HETATM  105  O   UNL     1      11.489  15.134 -10.029  1.00  0.00    -0.189 OA
HETATM  106  H   UNL     1       9.178  14.218 -10.899  1.00  0.00     0.320 HD
ENDBRANCH  99 102
ENDBRANCH  93  96
ENDBRANCH  91  93
ENDBRANCH  86  91
BRANCH  87 107
HETATM  107  O   UNL     1       3.462  17.982 -14.277  1.00  0.00    -0.391 OA
HETATM  108  H   UNL     1       2.548  18.254 -14.389  1.00  0.00     0.210 HD
ENDBRANCH  87 107
ENDBRANCH  81  82
ENDBRANCH  75  81
BRANCH  76 109
HETATM  109  N   UNL     1       1.163  15.213  -9.541  1.00  0.00    -0.208 NA
HETATM  110  H   UNL     1       1.131  14.835 -10.477  1.00  0.00     0.140 HD
BRANCH 109 111
HETATM  111  S   UNL     1      -0.445  15.756  -9.234  1.00  0.00     0.215 S 
HETATM  112  O   UNL     1      -0.605  17.424  -9.366  1.00  0.00    -0.211 OA
HETATM  113  O   UNL     1      -1.500  14.986 -10.290  1.00  0.00    -0.211 OA
BRANCH 111 114
HETATM  114  C   UNL     1      -0.842  15.259  -7.541  1.00  0.00     0.134 C 
HETATM  115  C   UNL     1      -0.776  16.445  -6.570  1.00  0.00     0.024 C 
HETATM  116  C   UNL     1      -1.112  16.028  -5.135  1.00  0.00     0.018 C 
HETATM  117  C   UNL     1      -0.174  14.923  -4.639  1.00  0.00     0.240 C 
HETATM  118  C   UNL     1      -0.239  13.720  -5.591  1.00  0.00     0.032 C 
HETATM  119  C   UNL     1       0.064  14.123  -7.040  1.00  0.00     0.018 C 
BRANCH 117 120
HETATM  120  N   UNL     1      -0.535  14.538  -3.259  1.00  0.00     0.133 N 
HETATM  121  C   UNL     1       0.208  13.364  -2.755  1.00  0.00     0.352 C 
HETATM  122  C   UNL     1       1.657  13.717  -2.402  1.00  0.00     0.085 C 
HETATM  123  O   UNL     1      -0.350  12.602  -1.706  1.00  0.00    -0.189 OA
HETATM  124  H   UNL     1      -1.526  14.341  -3.230  1.00  0.00     0.320 HD
ENDBRANCH 117 120
ENDBRANCH 111 114
ENDBRANCH 109 111
ENDBRANCH  76 109
BRANCH  77 125
HETATM  125  O   UNL     1       3.644  14.776  -8.436  1.00  0.00    -0.391 OA
HETATM  126  H   UNL     1       4.117  14.571  -7.627  1.00  0.00     0.210 HD
ENDBRANCH  77 125
ENDBRANCH  71  72
ENDBRANCH   4  71
TORSDOF 40
ENDMDL
