MODEL 1
REMARK VINA RESULT:      -7.8      0.000      0.000
REMARK WARNING: 32 MAX_TORS EXCEEDED!!!
REMARK  41 active torsions:
REMARK  status: ('A' for Active; 'I' for Inactive)
REMARK    1  A    between atoms: C_1  and  O_29 
REMARK    2  A    between atoms: C_2  and  C_6 
REMARK    3  A    between atoms: C_3  and  O_9 
REMARK    4  A    between atoms: C_4  and  O_88 
REMARK    5  A    between atoms: C_5  and  O_11 
REMARK    6  A    between atoms: C_6  and  O_7 
REMARK    7  A    between atoms: O_7  and  C_72 
REMARK    8  A    between atoms: O_11  and  C_19 
REMARK    9  A    between atoms: O_13  and  C_17 
REMARK   10  A    between atoms: C_15  and  C_22 
REMARK   11  A    between atoms: O_16  and  C_22 
REMARK   12  A    between atoms: O_16  and  C_78 
REMARK   13  A    between atoms: O_18  and  C_21 
REMARK   14  A    between atoms: O_18  and  C_41 
REMARK   15  A    between atoms: O_20  and  C_23 
REMARK   16  A    between atoms: O_25  and  C_28 
REMARK   17  A    between atoms: C_27  and  C_33 
REMARK   18  A    between atoms: O_29  and  C_32 
REMARK   19  A    between atoms: C_30  and  O_52 
REMARK   20  A    between atoms: O_31  and  C_34 
REMARK   21  A    between atoms: C_33  and  O_57 
REMARK   22  A    between atoms: O_36  and  C_40 
REMARK   23  A    between atoms: C_38  and  C_44 
REMARK   24  A    between atoms: O_39  and  C_44 
REMARK   25  A    between atoms: O_39  and  C_83 
REMARK   26  A    between atoms: O_42  and  C_45 
REMARK   27  A    between atoms: O_47  and  C_51 
REMARK   28  A    between atoms: C_49  and  C_55 
REMARK   29  A    between atoms: O_50  and  C_55 
REMARK   30  A    between atoms: O_50  and  C_61 
REMARK   31  A    between atoms: O_52  and  C_54 
REMARK   32  A    between atoms: C_56  and  O_86 
REMARK   33  A    between atoms: O_57  and  C_67 
REMARK   34  A    between atoms: C_61  and  C_62 
REMARK   35  A    between atoms: C_62  and  O_64 
REMARK   36  A    between atoms: C_67  and  C_68 
REMARK   37  A    between atoms: C_68  and  O_69 
REMARK   38  A    between atoms: C_72  and  C_73 
REMARK   39  A    between atoms: C_73  and  O_74 
REMARK   40  A    between atoms: C_78  and  O_79 
REMARK   41  A    between atoms: C_83  and  O_84 
ROOT
HETATM    1  C   UNL     1      -0.664   7.167  10.772  1.00  0.00     0.187 C 
HETATM    2  C   UNL     1       0.767   7.206  11.380  1.00  0.00     0.180 C 
HETATM    3  C   UNL     1      -1.721   7.255  11.895  1.00  0.00     0.183 C 
HETATM    4  C   UNL     1      -1.401   8.419  12.865  1.00  0.00     0.204 C 
HETATM    5  C   UNL     1       0.030   8.213  13.392  1.00  0.00     0.292 C 
HETATM    6  O   UNL     1       0.939   8.282  12.303  1.00  0.00    -0.348 OA
ENDROOT
BRANCH   1   7
HETATM    7  O   UNL     1      -0.829   8.251   9.858  1.00  0.00    -0.348 OA
BRANCH   7   8
HETATM    8  C   UNL     1      -0.764   7.814   8.501  1.00  0.00     0.292 C 
HETATM    9  O   UNL     1      -0.233   6.501   8.411  1.00  0.00    -0.348 OA
HETATM   10  C   UNL     1      -0.396   5.936   7.094  1.00  0.00     0.180 C 
HETATM   11  C   UNL     1      -0.396   6.996   5.927  1.00  0.00     0.187 C 
HETATM   12  C   UNL     1       0.571   8.128   6.321  1.00  0.00     0.183 C 
HETATM   13  C   UNL     1       0.090   8.796   7.648  1.00  0.00     0.204 C 
BRANCH  10  14
HETATM   14  C   UNL     1      -1.638   5.019   7.045  1.00  0.00     0.203 C 
BRANCH  14  15
HETATM   15  O   UNL     1      -2.056   4.725   5.731  1.00  0.00    -0.370 OA
BRANCH  15  16
HETATM   16  C   UNL     1      -1.725   3.403   5.414  1.00  0.00     0.262 C 
BRANCH  16  17
HETATM   17  C   UNL     1      -1.523   3.288   3.938  1.00  0.00     0.321 C 
HETATM   18  O   UNL     1      -1.366   2.192   3.426  1.00  0.00    -0.260 OA
BRANCH  17  19
HETATM   19  O   UNL     1      -1.529   4.391   3.166  1.00  0.00    -0.147 OA
HETATM   20 Na   UNL     1      -2.378   6.108   3.778  1.00  0.00     0.000 Na
ENDBRANCH  17  19
ENDBRANCH  16  17
ENDBRANCH  15  16
ENDBRANCH  14  15
ENDBRANCH  10  14
BRANCH  11  21
HETATM   21  O   UNL     1       0.061   6.408   4.711  1.00  0.00    -0.348 OA
BRANCH  21  22
HETATM   22  C   UNL     1       0.514   7.335   3.734  1.00  0.00     0.292 C 
HETATM   23  O   UNL     1      -0.607   7.892   3.029  1.00  0.00    -0.351 OA
HETATM   24  C   UNL     1      -0.759   7.394   1.715  1.00  0.00     0.151 C 
HETATM   25  C   UNL     1       0.470   7.731   0.831  1.00  0.00     0.068 C 
HETATM   26  C   UNL     1       1.791   7.586   1.622  1.00  0.00     0.154 C 
HETATM   27  C   UNL     1       1.607   6.666   2.839  1.00  0.00     0.202 C 
BRANCH  24  28
HETATM   28  C   UNL     1      -2.039   7.959   1.077  1.00  0.00     0.200 C 
BRANCH  28  29
HETATM   29  O   UNL     1      -3.188   7.682   1.857  1.00  0.00    -0.379 OA
BRANCH  29  30
HETATM   30  C   UNL     1      -4.294   7.334   1.042  1.00  0.00     0.281 C 
BRANCH  30  31
HETATM   31  C   UNL     1      -4.847   6.005   1.463  1.00  0.00     0.313 C 
HETATM   32  O   UNL     1      -4.406   5.423   2.443  1.00  0.00    -0.260 OA
BRANCH  31  33
HETATM   33  O   UNL     1      -5.850   5.449   0.758  1.00  0.00    -0.148 OA
HETATM   34 Na   UNL     1      -5.776   5.426  -1.256  1.00  0.00     0.000 Na
ENDBRANCH  31  33
ENDBRANCH  30  31
ENDBRANCH  29  30
ENDBRANCH  28  29
ENDBRANCH  24  28
BRANCH  26  35
HETATM   35  O   UNL     1       2.859   7.205   0.792  1.00  0.00    -0.393 OA
HETATM   36  H   UNL     1       2.520   7.180  -0.141  1.00  0.00     0.210 HD
ENDBRANCH  26  35
BRANCH  27  37
HETATM   37  O   UNL     1       1.210   5.377   2.437  1.00  0.00    -0.388 OA
HETATM   38  H   UNL     1       1.592   5.224   1.534  1.00  0.00     0.210 HD
ENDBRANCH  27  37
ENDBRANCH  21  22
ENDBRANCH  11  21
BRANCH  12  39
HETATM   39  O   UNL     1       1.889   7.629   6.416  1.00  0.00    -0.390 OA
HETATM   40  H   UNL     1       2.530   8.383   6.396  1.00  0.00     0.210 HD
ENDBRANCH  12  39
BRANCH  13  41
HETATM   41  O   UNL     1       1.175   9.356   8.348  1.00  0.00    -0.388 OA
HETATM   42  H   UNL     1       1.780   9.784   7.688  1.00  0.00     0.210 HD
ENDBRANCH  13  41
ENDBRANCH   7   8
ENDBRANCH   1   7
BRANCH   2  43
HETATM   43  C   UNL     1       1.246   5.845  11.969  1.00  0.00     0.203 C 
BRANCH  43  44
HETATM   44  O   UNL     1       2.532   5.449  11.531  1.00  0.00    -0.370 OA
BRANCH  44  45
HETATM   45  C   UNL     1       2.925   6.201  10.410  1.00  0.00     0.262 C 
BRANCH  45  46
HETATM   46  C   UNL     1       3.243   5.326   9.242  1.00  0.00     0.321 C 
HETATM   47  O   UNL     1       3.159   5.745   8.098  1.00  0.00    -0.260 OA
BRANCH  46  48
HETATM   48  O   UNL     1       3.611   4.050   9.462  1.00  0.00    -0.147 OA
HETATM   49 Na   UNL     1       2.621   2.978  10.854  1.00  0.00     0.000 Na
ENDBRANCH  46  48
ENDBRANCH  45  46
ENDBRANCH  44  45
ENDBRANCH  43  44
ENDBRANCH   2  43
BRANCH   3  50
HETATM   50  O   UNL     1      -3.002   7.395  11.337  1.00  0.00    -0.390 OA
HETATM   51  H   UNL     1      -3.646   7.414  12.094  1.00  0.00     0.210 HD
ENDBRANCH   3  50
BRANCH   4  52
HETATM   52  O   UNL     1      -1.480   9.663  12.213  1.00  0.00    -0.388 OA
HETATM   53  H   UNL     1      -1.022   9.561  11.339  1.00  0.00     0.210 HD
ENDBRANCH   4  52
BRANCH   5  54
HETATM   54  O   UNL     1       0.365   9.238  14.320  1.00  0.00    -0.348 OA
BRANCH  54  55
HETATM   55  C   UNL     1       1.600   9.895  14.024  1.00  0.00     0.187 C 
HETATM   56  C   UNL     1       1.404  11.439  13.875  1.00  0.00     0.180 C 
HETATM   57  O   UNL     1       2.400  12.238  14.509  1.00  0.00    -0.348 OA
HETATM   58  C   UNL     1       3.745  11.815  14.382  1.00  0.00     0.292 C 
HETATM   59  C   UNL     1       3.934  10.297  14.698  1.00  0.00     0.204 C 
HETATM   60  C   UNL     1       2.619   9.618  15.134  1.00  0.00     0.183 C 
BRANCH  56  61
HETATM   61  C   UNL     1       1.213  11.871  12.407  1.00  0.00     0.208 C 
BRANCH  61  62
HETATM   62  O   UNL     1      -0.150  12.107  12.099  1.00  0.00    -0.327 OA
BRANCH  62  63
HETATM   63  C   UNL     1      -0.437  12.422  10.742  1.00  0.00     0.339 C 
HETATM   64  C   UNL     1      -1.604  13.399  10.716  1.00  0.00     0.115 C 
HETATM   65  O   UNL     1       0.683  13.035  10.182  1.00  0.00    -0.163 OA
BRANCH  63  66
HETATM   66  O   UNL     1      -0.773  11.311   9.956  1.00  0.00    -0.163 OA
HETATM   67 Na   UNL     1       0.529   9.852  10.529  1.00  0.00     0.000 Na
ENDBRANCH  63  66
ENDBRANCH  62  63
ENDBRANCH  61  62
ENDBRANCH  56  61
BRANCH  58  68
HETATM   68  O   UNL     1       4.486  12.595  15.313  1.00  0.00    -0.348 OA
BRANCH  68  69
HETATM   69  C   UNL     1       5.449  13.451  14.713  1.00  0.00     0.187 C 
HETATM   70  C   UNL     1       6.039  14.451  15.776  1.00  0.00     0.177 C 
HETATM   71  O   UNL     1       7.306  15.027  15.420  1.00  0.00    -0.378 OA
HETATM   72  C   UNL     1       7.529  15.021  14.028  1.00  0.00     0.202 C 
HETATM   73  C   UNL     1       7.647  13.572  13.483  1.00  0.00     0.173 C 
HETATM   74  C   UNL     1       6.624  12.618  14.170  1.00  0.00     0.180 C 
BRANCH  70  75
HETATM   75  C   UNL     1       5.039  15.558  16.147  1.00  0.00     0.208 C 
BRANCH  75  76
HETATM   76  O   UNL     1       4.200  15.899  15.055  1.00  0.00    -0.327 OA
BRANCH  76  77
HETATM   77  C   UNL     1       4.324  17.231  14.563  1.00  0.00     0.339 C 
HETATM   78  C   UNL     1       3.199  18.075  15.150  1.00  0.00     0.115 C 
HETATM   79  O   UNL     1       5.544  17.743  15.005  1.00  0.00    -0.163 OA
BRANCH  77  80
HETATM   80  O   UNL     1       4.288  17.326  13.164  1.00  0.00    -0.163 OA
HETATM   81 Na   UNL     1       5.019  15.546  12.492  1.00  0.00     0.000 Na
ENDBRANCH  77  80
ENDBRANCH  76  77
ENDBRANCH  75  76
ENDBRANCH  70  75
BRANCH  73  82
HETATM   82  O   UNL     1       8.953  13.053  13.560  1.00  0.00    -0.391 OA
HETATM   83  H   UNL     1       8.944  12.131  13.192  1.00  0.00     0.210 HD
ENDBRANCH  73  82
BRANCH  74  84
HETATM   84  O   UNL     1       7.200  11.854  15.209  1.00  0.00    -0.390 OA
HETATM   85  H   UNL     1       6.900  10.913  15.135  1.00  0.00     0.210 HD
ENDBRANCH  74  84
ENDBRANCH  68  69
ENDBRANCH  58  68
BRANCH  59  86
HETATM   86  O   UNL     1       4.984  10.045  15.597  1.00  0.00    -0.388 OA
HETATM   87  H   UNL     1       5.090  10.847  16.170  1.00  0.00     0.210 HD
ENDBRANCH  59  86
BRANCH  60  88
HETATM   88  O   UNL     1       2.180  10.136  16.366  1.00  0.00    -0.390 OA
HETATM   89  H   UNL     1       2.289  11.120  16.317  1.00  0.00     0.210 HD
ENDBRANCH  60  88
ENDBRANCH  54  55
ENDBRANCH   5  54
TORSDOF 41
ENDMDL
MODEL 2
REMARK VINA RESULT:      -7.7      4.848      7.772
REMARK WARNING: 32 MAX_TORS EXCEEDED!!!
REMARK  41 active torsions:
REMARK  status: ('A' for Active; 'I' for Inactive)
REMARK    1  A    between atoms: C_1  and  O_29 
REMARK    2  A    between atoms: C_2  and  C_6 
REMARK    3  A    between atoms: C_3  and  O_9 
REMARK    4  A    between atoms: C_4  and  O_88 
REMARK    5  A    between atoms: C_5  and  O_11 
REMARK    6  A    between atoms: C_6  and  O_7 
REMARK    7  A    between atoms: O_7  and  C_72 
REMARK    8  A    between atoms: O_11  and  C_19 
REMARK    9  A    between atoms: O_13  and  C_17 
REMARK   10  A    between atoms: C_15  and  C_22 
REMARK   11  A    between atoms: O_16  and  C_22 
REMARK   12  A    between atoms: O_16  and  C_78 
REMARK   13  A    between atoms: O_18  and  C_21 
REMARK   14  A    between atoms: O_18  and  C_41 
REMARK   15  A    between atoms: O_20  and  C_23 
REMARK   16  A    between atoms: O_25  and  C_28 
REMARK   17  A    between atoms: C_27  and  C_33 
REMARK   18  A    between atoms: O_29  and  C_32 
REMARK   19  A    between atoms: C_30  and  O_52 
REMARK   20  A    between atoms: O_31  and  C_34 
REMARK   21  A    between atoms: C_33  and  O_57 
REMARK   22  A    between atoms: O_36  and  C_40 
REMARK   23  A    between atoms: C_38  and  C_44 
REMARK   24  A    between atoms: O_39  and  C_44 
REMARK   25  A    between atoms: O_39  and  C_83 
REMARK   26  A    between atoms: O_42  and  C_45 
REMARK   27  A    between atoms: O_47  and  C_51 
REMARK   28  A    between atoms: C_49  and  C_55 
REMARK   29  A    between atoms: O_50  and  C_55 
REMARK   30  A    between atoms: O_50  and  C_61 
REMARK   31  A    between atoms: O_52  and  C_54 
REMARK   32  A    between atoms: C_56  and  O_86 
REMARK   33  A    between atoms: O_57  and  C_67 
REMARK   34  A    between atoms: C_61  and  C_62 
REMARK   35  A    between atoms: C_62  and  O_64 
REMARK   36  A    between atoms: C_67  and  C_68 
REMARK   37  A    between atoms: C_68  and  O_69 
REMARK   38  A    between atoms: C_72  and  C_73 
REMARK   39  A    between atoms: C_73  and  O_74 
REMARK   40  A    between atoms: C_78  and  O_79 
REMARK   41  A    between atoms: C_83  and  O_84 
ROOT
HETATM    1  C   UNL     1      -0.295   6.530   9.622  1.00  0.00     0.187 C 
HETATM    2  C   UNL     1       0.708   5.982  10.677  1.00  0.00     0.180 C 
HETATM    3  C   UNL     1      -1.605   6.970  10.312  1.00  0.00     0.183 C 
HETATM    4  C   UNL     1      -1.308   7.872  11.536  1.00  0.00     0.204 C 
HETATM    5  C   UNL     1      -0.358   7.102  12.470  1.00  0.00     0.292 C 
HETATM    6  O   UNL     1       0.866   6.862  11.790  1.00  0.00    -0.348 OA
ENDROOT
BRANCH   1   7
HETATM    7  O   UNL     1       0.290   7.634   8.931  1.00  0.00    -0.348 OA
BRANCH   7   8
HETATM    8  C   UNL     1       0.617   7.300   7.582  1.00  0.00     0.292 C 
HETATM    9  O   UNL     1      -0.053   6.120   7.169  1.00  0.00    -0.348 OA
HETATM   10  C   UNL     1       0.048   5.904   5.748  1.00  0.00     0.180 C 
HETATM   11  C   UNL     1       1.365   6.474   5.095  1.00  0.00     0.187 C 
HETATM   12  C   UNL     1       2.502   6.324   6.124  1.00  0.00     0.183 C 
HETATM   13  C   UNL     1       2.154   7.130   7.416  1.00  0.00     0.204 C 
BRANCH  10  14
HETATM   14  C   UNL     1      -1.222   6.410   5.028  1.00  0.00     0.203 C 
BRANCH  14  15
HETATM   15  O   UNL     1      -2.113   5.372   4.686  1.00  0.00    -0.370 OA
BRANCH  15  16
HETATM   16  C   UNL     1      -1.395   4.201   4.416  1.00  0.00     0.262 C 
BRANCH  16  17
HETATM   17  C   UNL     1      -1.395   3.955   2.944  1.00  0.00     0.321 C 
HETATM   18  O   UNL     1      -0.471   3.349   2.425  1.00  0.00    -0.260 OA
BRANCH  17  19
HETATM   19  O   UNL     1      -2.419   4.385   2.184  1.00  0.00    -0.147 OA
HETATM   20 Na   UNL     1      -3.918   5.484   2.952  1.00  0.00     0.000 Na
ENDBRANCH  17  19
ENDBRANCH  16  17
ENDBRANCH  15  16
ENDBRANCH  14  15
ENDBRANCH  10  14
BRANCH  11  21
HETATM   21  O   UNL     1       1.710   5.735   3.925  1.00  0.00    -0.348 OA
BRANCH  21  22
HETATM   22  C   UNL     1       2.146   6.526   2.828  1.00  0.00     0.292 C 
HETATM   23  O   UNL     1       1.074   7.366   2.371  1.00  0.00    -0.351 OA
HETATM   24  C   UNL     1       0.499   6.945   1.152  1.00  0.00     0.151 C 
HETATM   25  C   UNL     1       1.532   6.962  -0.004  1.00  0.00     0.068 C 
HETATM   26  C   UNL     1       2.918   6.465   0.471  1.00  0.00     0.154 C 
HETATM   27  C   UNL     1       2.791   5.608   1.740  1.00  0.00     0.202 C 
BRANCH  24  28
HETATM   28  C   UNL     1      -0.705   7.833   0.796  1.00  0.00     0.200 C 
BRANCH  28  29
HETATM   29  O   UNL     1      -1.883   7.425   1.467  1.00  0.00    -0.379 OA
BRANCH  29  30
HETATM   30  C   UNL     1      -3.039   7.990   0.873  1.00  0.00     0.281 C 
BRANCH  30  31
HETATM   31  C   UNL     1      -3.790   6.942   0.105  1.00  0.00     0.313 C 
HETATM   32  O   UNL     1      -4.669   6.282   0.638  1.00  0.00    -0.260 OA
BRANCH  31  33
HETATM   33  O   UNL     1      -3.498   6.731  -1.192  1.00  0.00    -0.148 OA
HETATM   34 Na   UNL     1      -3.518   8.269  -2.495  1.00  0.00     0.000 Na
ENDBRANCH  31  33
ENDBRANCH  30  31
ENDBRANCH  29  30
ENDBRANCH  28  29
ENDBRANCH  24  28
BRANCH  26  35
HETATM   35  O   UNL     1       3.629   5.831  -0.562  1.00  0.00    -0.393 OA
HETATM   36  H   UNL     1       3.195   4.955  -0.732  1.00  0.00     0.210 HD
ENDBRANCH  26  35
BRANCH  27  37
HETATM   37  O   UNL     1       1.994   4.473   1.500  1.00  0.00    -0.388 OA
HETATM   38  H   UNL     1       1.862   4.413   0.518  1.00  0.00     0.210 HD
ENDBRANCH  27  37
ENDBRANCH  21  22
ENDBRANCH  11  21
BRANCH  12  39
HETATM   39  O   UNL     1       2.738   4.956   6.389  1.00  0.00    -0.390 OA
HETATM   40  H   UNL     1       3.557   4.864   6.940  1.00  0.00     0.210 HD
ENDBRANCH  12  39
BRANCH  13  41
HETATM   41  O   UNL     1       2.785   6.567   8.541  1.00  0.00    -0.388 OA
HETATM   42  H   UNL     1       3.735   6.399   8.309  1.00  0.00     0.210 HD
ENDBRANCH  13  41
ENDBRANCH   7   8
ENDBRANCH   1   7
BRANCH   2  43
HETATM   43  C   UNL     1       0.424   4.516  11.124  1.00  0.00     0.203 C 
BRANCH  43  44
HETATM   44  O   UNL     1       1.489   3.619  10.868  1.00  0.00    -0.370 OA
BRANCH  44  45
HETATM   45  C   UNL     1       2.344   3.539  11.981  1.00  0.00     0.262 C 
BRANCH  45  46
HETATM   46  C   UNL     1       3.610   4.301  11.761  1.00  0.00     0.321 C 
HETATM   47  O   UNL     1       3.973   4.610  10.637  1.00  0.00    -0.260 OA
BRANCH  46  48
HETATM   48  O   UNL     1       4.365   4.636  12.824  1.00  0.00    -0.147 OA
HETATM   49 Na   UNL     1       3.569   4.477  14.671  1.00  0.00     0.000 Na
ENDBRANCH  46  48
ENDBRANCH  45  46
ENDBRANCH  44  45
ENDBRANCH  43  44
ENDBRANCH   2  43
BRANCH   3  50
HETATM   50  O   UNL     1      -2.437   7.623   9.388  1.00  0.00    -0.390 OA
HETATM   51  H   UNL     1      -3.363   7.568   9.745  1.00  0.00     0.210 HD
ENDBRANCH   3  50
BRANCH   4  52
HETATM   52  O   UNL     1      -0.697   9.077  11.146  1.00  0.00    -0.388 OA
HETATM   53  H   UNL     1      -0.805   9.713  11.900  1.00  0.00     0.210 HD
ENDBRANCH   4  52
BRANCH   5  54
HETATM   54  O   UNL     1      -0.080   7.872  13.633  1.00  0.00    -0.348 OA
BRANCH  54  55
HETATM   55  C   UNL     1       0.115   7.081  14.808  1.00  0.00     0.187 C 
HETATM   56  C   UNL     1      -0.311   5.596  14.574  1.00  0.00     0.180 C 
HETATM   57  O   UNL     1       0.584   4.620  15.102  1.00  0.00    -0.348 OA
HETATM   58  C   UNL     1       1.124   4.867  16.388  1.00  0.00     0.292 C 
HETATM   59  C   UNL     1       1.691   6.314  16.538  1.00  0.00     0.204 C 
HETATM   60  C   UNL     1       1.588   7.126  15.230  1.00  0.00     0.183 C 
BRANCH  56  61
HETATM   61  C   UNL     1      -1.755   5.316  15.036  1.00  0.00     0.208 C 
BRANCH  61  62
HETATM   62  O   UNL     1      -2.301   4.172  14.401  1.00  0.00    -0.327 OA
BRANCH  62  63
HETATM   63  C   UNL     1      -2.689   3.107  15.259  1.00  0.00     0.339 C 
HETATM   64  C   UNL     1      -3.041   3.693  16.618  1.00  0.00     0.115 C 
HETATM   65  O   UNL     1      -3.820   2.493  14.722  1.00  0.00    -0.163 OA
BRANCH  63  66
HETATM   66  O   UNL     1      -1.699   2.131  15.441  1.00  0.00    -0.163 OA
HETATM   67 Na   UNL     1      -2.003   0.790  13.937  1.00  0.00     0.000 Na
ENDBRANCH  63  66
ENDBRANCH  62  63
ENDBRANCH  61  62
ENDBRANCH  56  61
BRANCH  58  68
HETATM   68  O   UNL     1       2.173   3.920  16.557  1.00  0.00    -0.348 OA
BRANCH  68  69
HETATM   69  C   UNL     1       1.727   2.628  16.946  1.00  0.00     0.187 C 
HETATM   70  C   UNL     1       2.743   1.525  16.466  1.00  0.00     0.177 C 
HETATM   71  O   UNL     1       2.655   0.278  17.173  1.00  0.00    -0.378 OA
HETATM   72  C   UNL     1       1.391   0.083  17.767  1.00  0.00     0.202 C 
HETATM   73  C   UNL     1       1.127   1.129  18.884  1.00  0.00     0.173 C 
HETATM   74  C   UNL     1       1.653   2.540  18.481  1.00  0.00     0.180 C 
BRANCH  70  75
HETATM   75  C   UNL     1       2.658   1.282  14.949  1.00  0.00     0.208 C 
BRANCH  75  76
HETATM   76  O   UNL     1       1.329   1.401  14.469  1.00  0.00    -0.327 OA
BRANCH  76  77
HETATM   77  C   UNL     1       0.892   0.379  13.577  1.00  0.00     0.339 C 
HETATM   78  C   UNL     1       2.116  -0.339  13.022  1.00  0.00     0.115 C 
HETATM   79  O   UNL     1       0.130  -0.534  14.305  1.00  0.00    -0.163 OA
BRANCH  77  80
HETATM   80  O   UNL     1       0.113   0.850  12.510  1.00  0.00    -0.163 OA
HETATM   81 Na   UNL     1      -0.657   2.623  13.158  1.00  0.00     0.000 Na
ENDBRANCH  77  80
ENDBRANCH  76  77
ENDBRANCH  75  76
ENDBRANCH  70  75
BRANCH  73  82
HETATM   82  O   UNL     1       1.629   0.741  20.140  1.00  0.00    -0.391 OA
HETATM   83  H   UNL     1       2.194   1.478  20.490  1.00  0.00     0.210 HD
ENDBRANCH  73  82
BRANCH  74  84
HETATM   84  O   UNL     1       2.913   2.836  19.047  1.00  0.00    -0.390 OA
HETATM   85  H   UNL     1       2.801   3.069  20.003  1.00  0.00     0.210 HD
ENDBRANCH  74  84
ENDBRANCH  68  69
ENDBRANCH  58  68
BRANCH  59  86
HETATM   86  O   UNL     1       2.987   6.348  17.081  1.00  0.00    -0.388 OA
HETATM   87  H   UNL     1       3.003   7.050  17.781  1.00  0.00     0.210 HD
ENDBRANCH  59  86
BRANCH  60  88
HETATM   88  O   UNL     1       2.416   6.573  14.238  1.00  0.00    -0.390 OA
HETATM   89  H   UNL     1       1.866   5.914  13.741  1.00  0.00     0.210 HD
ENDBRANCH  60  88
ENDBRANCH  54  55
ENDBRANCH   5  54
TORSDOF 41
ENDMDL
MODEL 3
REMARK VINA RESULT:      -7.7      3.727      8.337
REMARK WARNING: 32 MAX_TORS EXCEEDED!!!
REMARK  41 active torsions:
REMARK  status: ('A' for Active; 'I' for Inactive)
REMARK    1  A    between atoms: C_1  and  O_29 
REMARK    2  A    between atoms: C_2  and  C_6 
REMARK    3  A    between atoms: C_3  and  O_9 
REMARK    4  A    between atoms: C_4  and  O_88 
REMARK    5  A    between atoms: C_5  and  O_11 
REMARK    6  A    between atoms: C_6  and  O_7 
REMARK    7  A    between atoms: O_7  and  C_72 
REMARK    8  A    between atoms: O_11  and  C_19 
REMARK    9  A    between atoms: O_13  and  C_17 
REMARK   10  A    between atoms: C_15  and  C_22 
REMARK   11  A    between atoms: O_16  and  C_22 
REMARK   12  A    between atoms: O_16  and  C_78 
REMARK   13  A    between atoms: O_18  and  C_21 
REMARK   14  A    between atoms: O_18  and  C_41 
REMARK   15  A    between atoms: O_20  and  C_23 
REMARK   16  A    between atoms: O_25  and  C_28 
REMARK   17  A    between atoms: C_27  and  C_33 
REMARK   18  A    between atoms: O_29  and  C_32 
REMARK   19  A    between atoms: C_30  and  O_52 
REMARK   20  A    between atoms: O_31  and  C_34 
REMARK   21  A    between atoms: C_33  and  O_57 
REMARK   22  A    between atoms: O_36  and  C_40 
REMARK   23  A    between atoms: C_38  and  C_44 
REMARK   24  A    between atoms: O_39  and  C_44 
REMARK   25  A    between atoms: O_39  and  C_83 
REMARK   26  A    between atoms: O_42  and  C_45 
REMARK   27  A    between atoms: O_47  and  C_51 
REMARK   28  A    between atoms: C_49  and  C_55 
REMARK   29  A    between atoms: O_50  and  C_55 
REMARK   30  A    between atoms: O_50  and  C_61 
REMARK   31  A    between atoms: O_52  and  C_54 
REMARK   32  A    between atoms: C_56  and  O_86 
REMARK   33  A    between atoms: O_57  and  C_67 
REMARK   34  A    between atoms: C_61  and  C_62 
REMARK   35  A    between atoms: C_62  and  O_64 
REMARK   36  A    between atoms: C_67  and  C_68 
REMARK   37  A    between atoms: C_68  and  O_69 
REMARK   38  A    between atoms: C_72  and  C_73 
REMARK   39  A    between atoms: C_73  and  O_74 
REMARK   40  A    between atoms: C_78  and  O_79 
REMARK   41  A    between atoms: C_83  and  O_84 
ROOT
HETATM    1  C   UNL     1       0.799   5.940   8.188  1.00  0.00     0.187 C 
HETATM    2  C   UNL     1       0.566   5.323   9.597  1.00  0.00     0.180 C 
HETATM    3  C   UNL     1       2.137   6.710   8.160  1.00  0.00     0.183 C 
HETATM    4  C   UNL     1       3.282   5.850   8.749  1.00  0.00     0.204 C 
HETATM    5  C   UNL     1       2.864   5.412  10.164  1.00  0.00     0.292 C 
HETATM    6  O   UNL     1       1.702   4.599  10.071  1.00  0.00    -0.348 OA
ENDROOT
BRANCH   1   7
HETATM    7  O   UNL     1       0.809   4.904   7.206  1.00  0.00    -0.348 OA
BRANCH   7   8
HETATM    8  C   UNL     1       0.005   5.240   6.075  1.00  0.00     0.292 C 
HETATM    9  O   UNL     1      -0.014   6.642   5.858  1.00  0.00    -0.348 OA
HETATM   10  C   UNL     1      -0.594   6.989   4.586  1.00  0.00     0.180 C 
HETATM   11  C   UNL     1      -1.690   5.978   4.072  1.00  0.00     0.187 C 
HETATM   12  C   UNL     1      -2.444   5.439   5.302  1.00  0.00     0.183 C 
HETATM   13  C   UNL     1      -1.445   4.706   6.254  1.00  0.00     0.204 C 
BRANCH  10  14
HETATM   14  C   UNL     1       0.509   7.234   3.532  1.00  0.00     0.203 C 
BRANCH  14  15
HETATM   15  O   UNL     1       1.778   6.776   3.944  1.00  0.00    -0.370 OA
BRANCH  15  16
HETATM   16  C   UNL     1       2.467   6.243   2.848  1.00  0.00     0.262 C 
BRANCH  16  17
HETATM   17  C   UNL     1       3.908   6.085   3.205  1.00  0.00     0.321 C 
HETATM   18  O   UNL     1       4.775   6.443   2.424  1.00  0.00    -0.260 OA
BRANCH  17  19
HETATM   19  O   UNL     1       4.259   5.564   4.396  1.00  0.00    -0.147 OA
HETATM   20 Na   UNL     1       2.884   4.978   5.740  1.00  0.00     0.000 Na
ENDBRANCH  17  19
ENDBRANCH  16  17
ENDBRANCH  15  16
ENDBRANCH  14  15
ENDBRANCH  10  14
BRANCH  11  21
HETATM   21  O   UNL     1      -2.623   6.636   3.217  1.00  0.00    -0.348 OA
BRANCH  21  22
HETATM   22  C   UNL     1      -2.953   5.921   2.034  1.00  0.00     0.292 C 
HETATM   23  O   UNL     1      -2.521   6.657   0.879  1.00  0.00    -0.351 OA
HETATM   24  C   UNL     1      -3.575   7.271   0.167  1.00  0.00     0.151 C 
HETATM   25  C   UNL     1      -4.577   6.225  -0.385  1.00  0.00     0.068 C 
HETATM   26  C   UNL     1      -4.821   5.085   0.632  1.00  0.00     0.154 C 
HETATM   27  C   UNL     1      -4.468   5.535   2.058  1.00  0.00     0.202 C 
BRANCH  24  28
HETATM   28  C   UNL     1      -3.014   8.123  -0.984  1.00  0.00     0.200 C 
BRANCH  28  29
HETATM   29  O   UNL     1      -3.289   7.552  -2.251  1.00  0.00    -0.379 OA
BRANCH  29  30
HETATM   30  C   UNL     1      -2.209   6.754  -2.704  1.00  0.00     0.281 C 
BRANCH  30  31
HETATM   31  C   UNL     1      -2.568   6.089  -4.001  1.00  0.00     0.313 C 
HETATM   32  O   UNL     1      -1.795   5.313  -4.543  1.00  0.00    -0.260 OA
BRANCH  31  33
HETATM   33  O   UNL     1      -3.760   6.343  -4.571  1.00  0.00    -0.148 OA
HETATM   34 Na   UNL     1      -4.071   5.887  -6.510  1.00  0.00     0.000 Na
ENDBRANCH  31  33
ENDBRANCH  30  31
ENDBRANCH  29  30
ENDBRANCH  28  29
ENDBRANCH  24  28
BRANCH  26  35
HETATM   35  O   UNL     1      -6.116   4.551   0.520  1.00  0.00    -0.393 OA
HETATM   36  H   UNL     1      -6.494   4.860  -0.345  1.00  0.00     0.210 HD
ENDBRANCH  26  35
BRANCH  27  37
HETATM   37  O   UNL     1      -5.261   6.629   2.449  1.00  0.00    -0.388 OA
HETATM   38  H   UNL     1      -6.041   6.657   1.836  1.00  0.00     0.210 HD
ENDBRANCH  27  37
ENDBRANCH  21  22
ENDBRANCH  11  21
BRANCH  12  39
HETATM   39  O   UNL     1      -3.132   6.489   5.949  1.00  0.00    -0.390 OA
HETATM   40  H   UNL     1      -3.322   7.210   5.297  1.00  0.00     0.210 HD
ENDBRANCH  12  39
BRANCH  13  41
HETATM   41  O   UNL     1      -1.902   4.747   7.585  1.00  0.00    -0.388 OA
HETATM   42  H   UNL     1      -2.861   4.495   7.589  1.00  0.00     0.210 HD
ENDBRANCH  13  41
ENDBRANCH   7   8
ENDBRANCH   1   7
BRANCH   2  43
HETATM   43  C   UNL     1       0.032   6.335  10.655  1.00  0.00     0.203 C 
BRANCH  43  44
HETATM   44  O   UNL     1      -0.930   7.242  10.150  1.00  0.00    -0.370 OA
BRANCH  44  45
HETATM   45  C   UNL     1      -0.559   8.567  10.445  1.00  0.00     0.262 C 
BRANCH  45  46
HETATM   46  C   UNL     1      -0.292   9.354   9.204  1.00  0.00     0.321 C 
HETATM   47  O   UNL     1       0.608  10.178   9.161  1.00  0.00    -0.260 OA
BRANCH  46  48
HETATM   48  O   UNL     1      -1.071   9.157   8.124  1.00  0.00    -0.147 OA
HETATM   49 Na   UNL     1      -1.720   7.289   7.720  1.00  0.00     0.000 Na
ENDBRANCH  46  48
ENDBRANCH  45  46
ENDBRANCH  44  45
ENDBRANCH  43  44
ENDBRANCH   2  43
BRANCH   3  50
HETATM   50  O   UNL     1       2.429   7.116   6.848  1.00  0.00    -0.390 OA
HETATM   51  H   UNL     1       2.797   8.037   6.905  1.00  0.00     0.210 HD
ENDBRANCH   3  50
BRANCH   4  52
HETATM   52  O   UNL     1       3.521   4.709   7.963  1.00  0.00    -0.388 OA
HETATM   53  H   UNL     1       2.649   4.247   7.853  1.00  0.00     0.210 HD
ENDBRANCH   4  52
BRANCH   5  54
HETATM   54  O   UNL     1       3.899   4.646  10.769  1.00  0.00    -0.348 OA
BRANCH  54  55
HETATM   55  C   UNL     1       3.845   4.642  12.198  1.00  0.00     0.187 C 
HETATM   56  C   UNL     1       2.794   5.668  12.732  1.00  0.00     0.180 C 
HETATM   57  O   UNL     1       1.973   5.192  13.797  1.00  0.00    -0.348 OA
HETATM   58  C   UNL     1       2.607   4.436  14.813  1.00  0.00     0.292 C 
HETATM   59  C   UNL     1       3.527   3.310  14.244  1.00  0.00     0.204 C 
HETATM   60  C   UNL     1       3.489   3.240  12.703  1.00  0.00     0.183 C 
BRANCH  56  61
HETATM   61  C   UNL     1       3.426   7.025  13.098  1.00  0.00     0.208 C 
BRANCH  61  62
HETATM   62  O   UNL     1       2.468   8.070  13.109  1.00  0.00    -0.327 OA
BRANCH  62  63
HETATM   63  C   UNL     1       2.464   8.901  14.263  1.00  0.00     0.339 C 
HETATM   64  C   UNL     1       1.217   9.771  14.220  1.00  0.00     0.115 C 
HETATM   65  O   UNL     1       2.414   8.089  15.395  1.00  0.00    -0.163 OA
BRANCH  63  66
HETATM   66  O   UNL     1       3.584   9.737  14.367  1.00  0.00    -0.163 OA
HETATM   67 Na   UNL     1       5.036   8.569  15.191  1.00  0.00     0.000 Na
ENDBRANCH  63  66
ENDBRANCH  62  63
ENDBRANCH  61  62
ENDBRANCH  56  61
BRANCH  58  68
HETATM   68  O   UNL     1       1.556   3.857  15.578  1.00  0.00    -0.348 OA
BRANCH  68  69
HETATM   69  C   UNL     1       0.254   4.190  15.117  1.00  0.00     0.187 C 
HETATM   70  C   UNL     1      -0.730   2.978  15.317  1.00  0.00     0.177 C 
HETATM   71  O   UNL     1      -2.123   3.330  15.327  1.00  0.00    -0.378 OA
HETATM   72  C   UNL     1      -2.378   4.543  14.655  1.00  0.00     0.202 C 
HETATM   73  C   UNL     1      -1.716   5.742  15.387  1.00  0.00     0.173 C 
HETATM   74  C   UNL     1      -0.305   5.369  15.934  1.00  0.00     0.180 C 
BRANCH  70  75
HETATM   75  C   UNL     1      -0.476   1.853  14.300  1.00  0.00     0.208 C 
BRANCH  75  76
HETATM   76  O   UNL     1       0.191   0.748  14.890  1.00  0.00    -0.327 OA
BRANCH  76  77
HETATM   77  C   UNL     1       0.727  -0.214  13.985  1.00  0.00     0.339 C 
HETATM   78  C   UNL     1       1.554  -1.220  14.778  1.00  0.00     0.115 C 
HETATM   79  O   UNL     1      -0.339  -0.885  13.385  1.00  0.00    -0.163 OA
BRANCH  77  80
HETATM   80  O   UNL     1       1.524   0.340  12.973  1.00  0.00    -0.163 OA
HETATM   81 Na   UNL     1       3.446   0.011  13.570  1.00  0.00     0.000 Na
ENDBRANCH  77  80
ENDBRANCH  76  77
ENDBRANCH  75  76
ENDBRANCH  70  75
BRANCH  73  82
HETATM   82  O   UNL     1      -2.524   6.289  16.401  1.00  0.00    -0.391 OA
HETATM   83  H   UNL     1      -2.193   7.203  16.604  1.00  0.00     0.210 HD
ENDBRANCH  73  82
BRANCH  74  84
HETATM   84  O   UNL     1      -0.319   5.045  17.309  1.00  0.00    -0.390 OA
HETATM   85  H   UNL     1      -0.012   5.824  17.837  1.00  0.00     0.210 HD
ENDBRANCH  74  84
ENDBRANCH  68  69
ENDBRANCH  58  68
BRANCH  59  86
HETATM   86  O   UNL     1       3.299   2.056  14.837  1.00  0.00    -0.388 OA
HETATM   87  H   UNL     1       3.422   1.365  14.137  1.00  0.00     0.210 HD
ENDBRANCH  59  86
BRANCH  60  88
HETATM   88  O   UNL     1       2.214   2.849  12.258  1.00  0.00    -0.390 OA
HETATM   89  H   UNL     1       2.254   2.818  11.268  1.00  0.00     0.210 HD
ENDBRANCH  60  88
ENDBRANCH  54  55
ENDBRANCH   5  54
TORSDOF 41
ENDMDL
MODEL 4
REMARK VINA RESULT:      -7.5      2.301      4.933
REMARK WARNING: 32 MAX_TORS EXCEEDED!!!
REMARK  41 active torsions:
REMARK  status: ('A' for Active; 'I' for Inactive)
REMARK    1  A    between atoms: C_1  and  O_29 
REMARK    2  A    between atoms: C_2  and  C_6 
REMARK    3  A    between atoms: C_3  and  O_9 
REMARK    4  A    between atoms: C_4  and  O_88 
REMARK    5  A    between atoms: C_5  and  O_11 
REMARK    6  A    between atoms: C_6  and  O_7 
REMARK    7  A    between atoms: O_7  and  C_72 
REMARK    8  A    between atoms: O_11  and  C_19 
REMARK    9  A    between atoms: O_13  and  C_17 
REMARK   10  A    between atoms: C_15  and  C_22 
REMARK   11  A    between atoms: O_16  and  C_22 
REMARK   12  A    between atoms: O_16  and  C_78 
REMARK   13  A    between atoms: O_18  and  C_21 
REMARK   14  A    between atoms: O_18  and  C_41 
REMARK   15  A    between atoms: O_20  and  C_23 
REMARK   16  A    between atoms: O_25  and  C_28 
REMARK   17  A    between atoms: C_27  and  C_33 
REMARK   18  A    between atoms: O_29  and  C_32 
REMARK   19  A    between atoms: C_30  and  O_52 
REMARK   20  A    between atoms: O_31  and  C_34 
REMARK   21  A    between atoms: C_33  and  O_57 
REMARK   22  A    between atoms: O_36  and  C_40 
REMARK   23  A    between atoms: C_38  and  C_44 
REMARK   24  A    between atoms: O_39  and  C_44 
REMARK   25  A    between atoms: O_39  and  C_83 
REMARK   26  A    between atoms: O_42  and  C_45 
REMARK   27  A    between atoms: O_47  and  C_51 
REMARK   28  A    between atoms: C_49  and  C_55 
REMARK   29  A    between atoms: O_50  and  C_55 
REMARK   30  A    between atoms: O_50  and  C_61 
REMARK   31  A    between atoms: O_52  and  C_54 
REMARK   32  A    between atoms: C_56  and  O_86 
REMARK   33  A    between atoms: O_57  and  C_67 
REMARK   34  A    between atoms: C_61  and  C_62 
REMARK   35  A    between atoms: C_62  and  O_64 
REMARK   36  A    between atoms: C_67  and  C_68 
REMARK   37  A    between atoms: C_68  and  O_69 
REMARK   38  A    between atoms: C_72  and  C_73 
REMARK   39  A    between atoms: C_73  and  O_74 
REMARK   40  A    between atoms: C_78  and  O_79 
REMARK   41  A    between atoms: C_83  and  O_84 
ROOT
HETATM    1  C   UNL     1       0.000   6.752   8.813  1.00  0.00     0.187 C 
HETATM    2  C   UNL     1      -0.690   7.776   9.758  1.00  0.00     0.180 C 
HETATM    3  C   UNL     1       1.260   6.167   9.491  1.00  0.00     0.183 C 
HETATM    4  C   UNL     1       0.941   5.693  10.931  1.00  0.00     0.204 C 
HETATM    5  C   UNL     1       0.336   6.882  11.697  1.00  0.00     0.292 C 
HETATM    6  O   UNL     1      -0.884   7.259  11.075  1.00  0.00    -0.348 OA
ENDROOT
BRANCH   1   7
HETATM    7  O   UNL     1      -0.914   5.703   8.490  1.00  0.00    -0.348 OA
BRANCH   7   8
HETATM    8  C   UNL     1      -0.924   5.423   7.091  1.00  0.00     0.292 C 
HETATM    9  O   UNL     1      -0.113   6.343   6.378  1.00  0.00    -0.348 OA
HETATM   10  C   UNL     1       0.105   5.934   5.013  1.00  0.00     0.180 C 
HETATM   11  C   UNL     1      -1.073   5.092   4.389  1.00  0.00     0.187 C 
HETATM   12  C   UNL     1      -2.393   5.620   4.984  1.00  0.00     0.183 C 
HETATM   13  C   UNL     1      -2.378   5.449   6.537  1.00  0.00     0.204 C 
BRANCH  10  14
HETATM   14  C   UNL     1       1.468   5.219   4.870  1.00  0.00     0.203 C 
BRANCH  14  15
HETATM   15  O   UNL     1       2.550   6.114   4.738  1.00  0.00    -0.370 OA
BRANCH  15  16
HETATM   16  C   UNL     1       3.738   5.396   4.556  1.00  0.00     0.262 C 
BRANCH  16  17
HETATM   17  C   UNL     1       4.141   5.472   3.120  1.00  0.00     0.321 C 
HETATM   18  O   UNL     1       4.132   6.545   2.539  1.00  0.00    -0.260 OA
BRANCH  17  19
HETATM   19  O   UNL     1       4.530   4.363   2.465  1.00  0.00    -0.147 OA
HETATM   20 Na   UNL     1       5.956   3.148   3.195  1.00  0.00     0.000 Na
ENDBRANCH  17  19
ENDBRANCH  16  17
ENDBRANCH  15  16
ENDBRANCH  14  15
ENDBRANCH  10  14
BRANCH  11  21
HETATM   21  O   UNL     1      -1.115   5.253   2.973  1.00  0.00    -0.348 OA
BRANCH  21  22
HETATM   22  C   UNL     1      -0.433   6.400   2.484  1.00  0.00     0.292 C 
HETATM   23  O   UNL     1      -1.372   7.318   1.902  1.00  0.00    -0.351 OA
HETATM   24  C   UNL     1      -1.337   7.352   0.490  1.00  0.00     0.151 C 
HETATM   25  C   UNL     1       0.046   7.815  -0.037  1.00  0.00     0.068 C 
HETATM   26  C   UNL     1       1.199   7.220   0.804  1.00  0.00     0.154 C 
HETATM   27  C   UNL     1       0.741   5.957   1.552  1.00  0.00     0.202 C 
BRANCH  24  28
HETATM   28  C   UNL     1      -2.443   8.275  -0.048  1.00  0.00     0.200 C 
BRANCH  28  29
HETATM   29  O   UNL     1      -3.735   7.826   0.320  1.00  0.00    -0.379 OA
BRANCH  29  30
HETATM   30  C   UNL     1      -4.122   6.689  -0.433  1.00  0.00     0.281 C 
BRANCH  30  31
HETATM   31  C   UNL     1      -4.971   5.780   0.405  1.00  0.00     0.313 C 
HETATM   32  O   UNL     1      -5.872   5.123  -0.096  1.00  0.00    -0.260 OA
BRANCH  31  33
HETATM   33  O   UNL     1      -4.733   5.678   1.726  1.00  0.00    -0.148 OA
HETATM   34 Na   UNL     1      -3.749   7.149   2.691  1.00  0.00     0.000 Na
ENDBRANCH  31  33
ENDBRANCH  30  31
ENDBRANCH  29  30
ENDBRANCH  28  29
ENDBRANCH  24  28
BRANCH  26  35
HETATM   35  O   UNL     1       2.360   7.024   0.037  1.00  0.00    -0.393 OA
HETATM   36  H   UNL     1       3.105   6.830   0.664  1.00  0.00     0.210 HD
ENDBRANCH  26  35
BRANCH  27  37
HETATM   37  O   UNL     1       0.320   4.965   0.647  1.00  0.00    -0.388 OA
HETATM   38  H   UNL     1       0.781   4.124   0.903  1.00  0.00     0.210 HD
ENDBRANCH  27  37
ENDBRANCH  21  22
ENDBRANCH  11  21
BRANCH  12  39
HETATM   39  O   UNL     1      -2.599   6.961   4.592  1.00  0.00    -0.390 OA
HETATM   40  H   UNL     1      -1.897   7.228   3.947  1.00  0.00     0.210 HD
ENDBRANCH  12  39
BRANCH  13  41
HETATM   41  O   UNL     1      -3.200   6.411   7.153  1.00  0.00    -0.388 OA
HETATM   42  H   UNL     1      -3.557   7.009   6.447  1.00  0.00     0.210 HD
ENDBRANCH  13  41
ENDBRANCH   7   8
ENDBRANCH   1   7
BRANCH   2  43
HETATM   43  C   UNL     1      -0.018   9.182   9.773  1.00  0.00     0.203 C 
BRANCH  43  44
HETATM   44  O   UNL     1      -0.920  10.254   9.578  1.00  0.00    -0.370 OA
BRANCH  44  45
HETATM   45  C   UNL     1      -0.951  10.632   8.223  1.00  0.00     0.262 C 
BRANCH  45  46
HETATM   46  C   UNL     1       0.388  11.089   7.746  1.00  0.00     0.321 C 
HETATM   47  O   UNL     1       0.939  12.057   8.245  1.00  0.00    -0.260 OA
BRANCH  46  48
HETATM   48  O   UNL     1       0.985  10.426   6.738  1.00  0.00    -0.147 OA
HETATM   49 Na   UNL     1       1.327   8.448   6.943  1.00  0.00     0.000 Na
ENDBRANCH  46  48
ENDBRANCH  45  46
ENDBRANCH  44  45
ENDBRANCH  43  44
ENDBRANCH   2  43
BRANCH   3  50
HETATM   50  O   UNL     1       1.780   5.120   8.713  1.00  0.00    -0.390 OA
HETATM   51  H   UNL     1       1.067   4.852   8.076  1.00  0.00     0.210 HD
ENDBRANCH   3  50
BRANCH   4  52
HETATM   52  O   UNL     1       0.022   4.629  10.926  1.00  0.00    -0.388 OA
HETATM   53  H   UNL     1      -0.885   5.030  10.900  1.00  0.00     0.210 HD
ENDBRANCH   4  52
BRANCH   5  54
HETATM   54  O   UNL     1       0.058   6.512  13.041  1.00  0.00    -0.348 OA
BRANCH  54  55
HETATM   55  C   UNL     1       0.743   7.312  14.008  1.00  0.00     0.187 C 
HETATM   56  C   UNL     1       2.102   7.844  13.447  1.00  0.00     0.180 C 
HETATM   57  O   UNL     1       2.380   9.212  13.738  1.00  0.00    -0.348 OA
HETATM   58  C   UNL     1       2.079   9.670  15.043  1.00  0.00     0.292 C 
HETATM   59  C   UNL     1       0.647   9.259  15.513  1.00  0.00     0.204 C 
HETATM   60  C   UNL     1      -0.135   8.498  14.421  1.00  0.00     0.183 C 
BRANCH  56  61
HETATM   61  C   UNL     1       3.294   6.950  13.842  1.00  0.00     0.208 C 
BRANCH  61  62
HETATM   62  O   UNL     1       2.875   5.783  14.530  1.00  0.00    -0.327 OA
BRANCH  62  63
HETATM   63  C   UNL     1       3.094   4.550  13.856  1.00  0.00     0.339 C 
HETATM   64  C   UNL     1       1.800   3.750  13.894  1.00  0.00     0.115 C 
HETATM   65  O   UNL     1       3.423   4.822  12.529  1.00  0.00    -0.163 OA
BRANCH  63  66
HETATM   66  O   UNL     1       4.115   3.769  14.415  1.00  0.00    -0.163 OA
HETATM   67 Na   UNL     1       5.636   3.847  13.062  1.00  0.00     0.000 Na
ENDBRANCH  63  66
ENDBRANCH  62  63
ENDBRANCH  61  62
ENDBRANCH  56  61
BRANCH  58  68
HETATM   68  O   UNL     1       2.178  11.088  14.990  1.00  0.00    -0.348 OA
BRANCH  68  69
HETATM   69  C   UNL     1       3.428  11.562  14.508  1.00  0.00     0.187 C 
HETATM   70  C   UNL     1       3.323  13.078  14.095  1.00  0.00     0.177 C 
HETATM   71  O   UNL     1       4.579  13.773  14.039  1.00  0.00    -0.378 OA
HETATM   72  C   UNL     1       5.670  12.903  13.843  1.00  0.00     0.202 C 
HETATM   73  C   UNL     1       5.858  11.955  15.059  1.00  0.00     0.173 C 
HETATM   74  C   UNL     1       4.488  11.466  15.620  1.00  0.00     0.180 C 
BRANCH  70  75
HETATM   75  C   UNL     1       2.553  13.266  12.777  1.00  0.00     0.208 C 
BRANCH  75  76
HETATM   76  O   UNL     1       1.185  13.561  13.002  1.00  0.00    -0.327 OA
BRANCH  76  77
HETATM   77  C   UNL     1       0.249  12.617  12.488  1.00  0.00     0.339 C 
HETATM   78  C   UNL     1      -0.578  13.293  11.401  1.00  0.00     0.115 C 
HETATM   79  O   UNL     1       0.965  11.565  11.917  1.00  0.00    -0.163 OA
BRANCH  77  80
HETATM   80  O   UNL     1      -0.615  12.086  13.458  1.00  0.00    -0.163 OA
HETATM   81 Na   UNL     1      -1.965  10.972  12.413  1.00  0.00     0.000 Na
ENDBRANCH  77  80
ENDBRANCH  76  77
ENDBRANCH  75  76
ENDBRANCH  70  75
BRANCH  73  82
HETATM   82  O   UNL     1       6.655  12.508  16.078  1.00  0.00    -0.391 OA
HETATM   83  H   UNL     1       6.943  13.414  15.791  1.00  0.00     0.210 HD
ENDBRANCH  73  82
BRANCH  74  84
HETATM   84  O   UNL     1       4.071  12.196  16.755  1.00  0.00    -0.390 OA
HETATM   85  H   UNL     1       3.971  13.152  16.517  1.00  0.00     0.210 HD
ENDBRANCH  74  84
ENDBRANCH  68  69
ENDBRANCH  58  68
BRANCH  59  86
HETATM   86  O   UNL     1      -0.091  10.331  16.043  1.00  0.00    -0.388 OA
HETATM   87  H   UNL     1       0.165  11.149  15.545  1.00  0.00     0.210 HD
ENDBRANCH  59  86
BRANCH  60  88
HETATM   88  O   UNL     1      -0.399   9.339  13.326  1.00  0.00    -0.390 OA
HETATM   89  H   UNL     1      -0.933   8.808  12.680  1.00  0.00     0.210 HD
ENDBRANCH  60  88
ENDBRANCH  54  55
ENDBRANCH   5  54
TORSDOF 41
ENDMDL
MODEL 5
REMARK VINA RESULT:      -7.5      2.433      6.060
REMARK WARNING: 32 MAX_TORS EXCEEDED!!!
REMARK  41 active torsions:
REMARK  status: ('A' for Active; 'I' for Inactive)
REMARK    1  A    between atoms: C_1  and  O_29 
REMARK    2  A    between atoms: C_2  and  C_6 
REMARK    3  A    between atoms: C_3  and  O_9 
REMARK    4  A    between atoms: C_4  and  O_88 
REMARK    5  A    between atoms: C_5  and  O_11 
REMARK    6  A    between atoms: C_6  and  O_7 
REMARK    7  A    between atoms: O_7  and  C_72 
REMARK    8  A    between atoms: O_11  and  C_19 
REMARK    9  A    between atoms: O_13  and  C_17 
REMARK   10  A    between atoms: C_15  and  C_22 
REMARK   11  A    between atoms: O_16  and  C_22 
REMARK   12  A    between atoms: O_16  and  C_78 
REMARK   13  A    between atoms: O_18  and  C_21 
REMARK   14  A    between atoms: O_18  and  C_41 
REMARK   15  A    between atoms: O_20  and  C_23 
REMARK   16  A    between atoms: O_25  and  C_28 
REMARK   17  A    between atoms: C_27  and  C_33 
REMARK   18  A    between atoms: O_29  and  C_32 
REMARK   19  A    between atoms: C_30  and  O_52 
REMARK   20  A    between atoms: O_31  and  C_34 
REMARK   21  A    between atoms: C_33  and  O_57 
REMARK   22  A    between atoms: O_36  and  C_40 
REMARK   23  A    between atoms: C_38  and  C_44 
REMARK   24  A    between atoms: O_39  and  C_44 
REMARK   25  A    between atoms: O_39  and  C_83 
REMARK   26  A    between atoms: O_42  and  C_45 
REMARK   27  A    between atoms: O_47  and  C_51 
REMARK   28  A    between atoms: C_49  and  C_55 
REMARK   29  A    between atoms: O_50  and  C_55 
REMARK   30  A    between atoms: O_50  and  C_61 
REMARK   31  A    between atoms: O_52  and  C_54 
REMARK   32  A    between atoms: C_56  and  O_86 
REMARK   33  A    between atoms: O_57  and  C_67 
REMARK   34  A    between atoms: C_61  and  C_62 
REMARK   35  A    between atoms: C_62  and  O_64 
REMARK   36  A    between atoms: C_67  and  C_68 
REMARK   37  A    between atoms: C_68  and  O_69 
REMARK   38  A    between atoms: C_72  and  C_73 
REMARK   39  A    between atoms: C_73  and  O_74 
REMARK   40  A    between atoms: C_78  and  O_79 
REMARK   41  A    between atoms: C_83  and  O_84 
ROOT
HETATM    1  C   UNL     1      -0.114   6.588   7.167  1.00  0.00     0.187 C 
HETATM    2  C   UNL     1      -1.013   7.605   7.926  1.00  0.00     0.180 C 
HETATM    3  C   UNL     1       1.037   6.111   8.081  1.00  0.00     0.183 C 
HETATM    4  C   UNL     1       0.498   5.677   9.466  1.00  0.00     0.204 C 
HETATM    5  C   UNL     1      -0.295   6.857  10.055  1.00  0.00     0.292 C 
HETATM    6  O   UNL     1      -1.406   7.132   9.215  1.00  0.00    -0.348 OA
ENDROOT
BRANCH   1   7
HETATM    7  O   UNL     1      -0.900   5.472   6.747  1.00  0.00    -0.348 OA
BRANCH   7   8
HETATM    8  C   UNL     1      -1.106   5.473   5.334  1.00  0.00     0.292 C 
HETATM    9  O   UNL     1      -2.442   5.122   5.011  1.00  0.00    -0.348 OA
HETATM   10  C   UNL     1      -2.750   5.366   3.624  1.00  0.00     0.180 C 
HETATM   11  C   UNL     1      -1.517   5.232   2.650  1.00  0.00     0.187 C 
HETATM   12  C   UNL     1      -0.603   4.121   3.200  1.00  0.00     0.183 C 
HETATM   13  C   UNL     1      -0.113   4.502   4.634  1.00  0.00     0.204 C 
BRANCH  10  14
HETATM   14  C   UNL     1      -3.477   6.719   3.457  1.00  0.00     0.203 C 
BRANCH  14  15
HETATM   15  O   UNL     1      -4.116   6.852   2.207  1.00  0.00    -0.370 OA
BRANCH  15  16
HETATM   16  C   UNL     1      -4.993   5.780   2.008  1.00  0.00     0.262 C 
BRANCH  16  17
HETATM   17  C   UNL     1      -5.537   5.843   0.618  1.00  0.00     0.321 C 
HETATM   18  O   UNL     1      -6.026   4.849   0.107  1.00  0.00    -0.260 OA
BRANCH  17  19
HETATM   19  O   UNL     1      -5.504   6.999  -0.071  1.00  0.00    -0.147 OA
HETATM   20 Na   UNL     1      -6.962   7.503  -1.361  1.00  0.00     0.000 Na
ENDBRANCH  17  19
ENDBRANCH  16  17
ENDBRANCH  15  16
ENDBRANCH  14  15
ENDBRANCH  10  14
BRANCH  11  21
HETATM   21  O   UNL     1      -1.945   4.864   1.341  1.00  0.00    -0.348 OA
BRANCH  21  22
HETATM   22  C   UNL     1      -1.224   5.480   0.283  1.00  0.00     0.292 C 
HETATM   23  O   UNL     1       0.180   5.211   0.424  1.00  0.00    -0.351 OA
HETATM   24  C   UNL     1       0.931   6.321   0.871  1.00  0.00     0.151 C 
HETATM   25  C   UNL     1       0.855   7.503  -0.129  1.00  0.00     0.068 C 
HETATM   26  C   UNL     1      -0.566   7.652  -0.721  1.00  0.00     0.154 C 
HETATM   27  C   UNL     1      -1.613   6.991   0.189  1.00  0.00     0.202 C 
BRANCH  24  28
HETATM   28  C   UNL     1       2.397   5.915   1.098  1.00  0.00     0.200 C 
BRANCH  28  29
HETATM   29  O   UNL     1       2.834   6.212   2.412  1.00  0.00    -0.379 OA
BRANCH  29  30
HETATM   30  C   UNL     1       3.833   5.304   2.843  1.00  0.00     0.281 C 
BRANCH  30  31
HETATM   31  C   UNL     1       5.046   5.418   1.967  1.00  0.00     0.313 C 
HETATM   32  O   UNL     1       5.500   6.510   1.663  1.00  0.00    -0.260 OA
BRANCH  31  33
HETATM   33  O   UNL     1       5.649   4.301   1.519  1.00  0.00    -0.148 OA
HETATM   34 Na   UNL     1       4.552   2.669   1.077  1.00  0.00     0.000 Na
ENDBRANCH  31  33
ENDBRANCH  30  31
ENDBRANCH  29  30
ENDBRANCH  28  29
ENDBRANCH  24  28
BRANCH  26  35
HETATM   35  O   UNL     1      -0.865   8.988  -1.037  1.00  0.00    -0.393 OA
HETATM   36  H   UNL     1      -1.135   9.442  -0.196  1.00  0.00     0.210 HD
ENDBRANCH  26  35
BRANCH  27  37
HETATM   37  O   UNL     1      -1.619   7.590   1.463  1.00  0.00    -0.388 OA
HETATM   38  H   UNL     1      -2.525   7.451   1.845  1.00  0.00     0.210 HD
ENDBRANCH  27  37
ENDBRANCH  21  22
ENDBRANCH  11  21
BRANCH  12  39
HETATM   39  O   UNL     1      -1.278   2.880   3.174  1.00  0.00    -0.390 OA
HETATM   40  H   UNL     1      -1.372   2.536   4.098  1.00  0.00     0.210 HD
ENDBRANCH  12  39
BRANCH  13  41
HETATM   41  O   UNL     1       0.174   3.348   5.387  1.00  0.00    -0.388 OA
HETATM   42  H   UNL     1      -0.391   2.608   5.045  1.00  0.00     0.210 HD
ENDBRANCH  13  41
ENDBRANCH   7   8
ENDBRANCH   1   7
BRANCH   2  43
HETATM   43  C   UNL     1      -0.431   9.050   7.985  1.00  0.00     0.203 C 
BRANCH  43  44
HETATM   44  O   UNL     1      -1.316  10.006   8.534  1.00  0.00    -0.370 OA
BRANCH  44  45
HETATM   45  C   UNL     1      -1.070  11.278   7.986  1.00  0.00     0.262 C 
BRANCH  45  46
HETATM   46  C   UNL     1       0.277  11.794   8.371  1.00  0.00     0.321 C 
HETATM   47  O   UNL     1       1.204  11.792   7.577  1.00  0.00    -0.260 OA
BRANCH  46  48
HETATM   48  O   UNL     1       0.469  12.253   9.622  1.00  0.00    -0.147 OA
HETATM   49 Na   UNL     1      -0.003  11.060  11.179  1.00  0.00     0.000 Na
ENDBRANCH  46  48
ENDBRANCH  45  46
ENDBRANCH  44  45
ENDBRANCH  43  44
ENDBRANCH   2  43
BRANCH   3  50
HETATM   50  O   UNL     1       1.741   5.067   7.458  1.00  0.00    -0.390 OA
HETATM   51  H   UNL     1       1.191   4.769   6.686  1.00  0.00     0.210 HD
ENDBRANCH   3  50
BRANCH   4  52
HETATM   52  O   UNL     1      -0.347   4.559   9.359  1.00  0.00    -0.388 OA
HETATM   53  H   UNL     1      -0.445   4.181  10.271  1.00  0.00     0.210 HD
ENDBRANCH   4  52
BRANCH   5  54
HETATM   54  O   UNL     1      -0.783   6.525  11.349  1.00  0.00    -0.348 OA
BRANCH  54  55
HETATM   55  C   UNL     1      -0.096   7.197  12.408  1.00  0.00     0.187 C 
HETATM   56  C   UNL     1       1.016   8.146  11.855  1.00  0.00     0.180 C 
HETATM   57  O   UNL     1       1.083   9.426  12.479  1.00  0.00    -0.348 OA
HETATM   58  C   UNL     1       0.942   9.466  13.888  1.00  0.00     0.292 C 
HETATM   59  C   UNL     1      -0.280   8.637  14.397  1.00  0.00     0.204 C 
HETATM   60  C   UNL     1      -1.090   8.012  13.242  1.00  0.00     0.183 C 
BRANCH  56  61
HETATM   61  C   UNL     1       2.405   7.478  11.833  1.00  0.00     0.208 C 
BRANCH  61  62
HETATM   62  O   UNL     1       2.411   6.246  12.532  1.00  0.00    -0.327 OA
BRANCH  62  63
HETATM   63  C   UNL     1       3.266   5.236  12.010  1.00  0.00     0.339 C 
HETATM   64  C   UNL     1       3.854   5.739  10.701  1.00  0.00     0.115 C 
HETATM   65  O   UNL     1       4.300   5.016  12.920  1.00  0.00    -0.163 OA
BRANCH  63  66
HETATM   66  O   UNL     1       2.623   4.014  11.767  1.00  0.00    -0.163 OA
HETATM   67 Na   UNL     1       0.634   4.430  11.913  1.00  0.00     0.000 Na
ENDBRANCH  63  66
ENDBRANCH  62  63
ENDBRANCH  61  62
ENDBRANCH  56  61
BRANCH  58  68
HETATM   68  O   UNL     1       0.764  10.838  14.221  1.00  0.00    -0.348 OA
BRANCH  68  69
HETATM   69  C   UNL     1       1.712  11.708  13.616  1.00  0.00     0.187 C 
HETATM   70  C   UNL     1       1.288  13.211  13.814  1.00  0.00     0.177 C 
HETATM   71  O   UNL     1       2.356  14.160  13.667  1.00  0.00    -0.378 OA
HETATM   72  C   UNL     1       3.417  13.662  12.884  1.00  0.00     0.202 C 
HETATM   73  C   UNL     1       4.117  12.465  13.583  1.00  0.00     0.173 C 
HETATM   74  C   UNL     1       3.086  11.531  14.286  1.00  0.00     0.180 C 
BRANCH  70  75
HETATM   75  C   UNL     1       0.104  13.601  12.912  1.00  0.00     0.208 C 
BRANCH  75  76
HETATM   76  O   UNL     1      -1.124  13.596  13.622  1.00  0.00    -0.327 OA
BRANCH  76  77
HETATM   77  C   UNL     1      -2.157  12.779  13.078  1.00  0.00     0.339 C 
HETATM   78  C   UNL     1      -3.463  13.566  13.099  1.00  0.00     0.115 C 
HETATM   79  O   UNL     1      -1.829  12.493  11.752  1.00  0.00    -0.163 OA
BRANCH  77  80
HETATM   80  O   UNL     1      -2.341  11.566  13.757  1.00  0.00    -0.163 OA
HETATM   81 Na   UNL     1      -1.090  11.663  15.364  1.00  0.00     0.000 Na
ENDBRANCH  77  80
ENDBRANCH  76  77
ENDBRANCH  75  76
ENDBRANCH  70  75
BRANCH  73  82
HETATM   82  O   UNL     1       5.134  12.857  14.473  1.00  0.00    -0.391 OA
HETATM   83  H   UNL     1       5.267  12.129  15.134  1.00  0.00     0.210 HD
ENDBRANCH  73  82
BRANCH  74  84
HETATM   84  O   UNL     1       2.986  11.773  15.674  1.00  0.00    -0.390 OA
HETATM   85  H   UNL     1       3.855  11.582  16.108  1.00  0.00     0.210 HD
ENDBRANCH  74  84
ENDBRANCH  68  69
ENDBRANCH  58  68
BRANCH  59  86
HETATM   86  O   UNL     1      -1.096   9.348  15.293  1.00  0.00    -0.388 OA
HETATM   87  H   UNL     1      -1.857   9.721  14.777  1.00  0.00     0.210 HD
ENDBRANCH  59  86
BRANCH  60  88
HETATM   88  O   UNL     1      -1.700   9.014  12.467  1.00  0.00    -0.390 OA
HETATM   89  H   UNL     1      -1.692   8.694  11.529  1.00  0.00     0.210 HD
ENDBRANCH  60  88
ENDBRANCH  54  55
ENDBRANCH   5  54
TORSDOF 41
ENDMDL
MODEL 6
REMARK VINA RESULT:      -7.4      2.289      4.743
REMARK WARNING: 32 MAX_TORS EXCEEDED!!!
REMARK  41 active torsions:
REMARK  status: ('A' for Active; 'I' for Inactive)
REMARK    1  A    between atoms: C_1  and  O_29 
REMARK    2  A    between atoms: C_2  and  C_6 
REMARK    3  A    between atoms: C_3  and  O_9 
REMARK    4  A    between atoms: C_4  and  O_88 
REMARK    5  A    between atoms: C_5  and  O_11 
REMARK    6  A    between atoms: C_6  and  O_7 
REMARK    7  A    between atoms: O_7  and  C_72 
REMARK    8  A    between atoms: O_11  and  C_19 
REMARK    9  A    between atoms: O_13  and  C_17 
REMARK   10  A    between atoms: C_15  and  C_22 
REMARK   11  A    between atoms: O_16  and  C_22 
REMARK   12  A    between atoms: O_16  and  C_78 
REMARK   13  A    between atoms: O_18  and  C_21 
REMARK   14  A    between atoms: O_18  and  C_41 
REMARK   15  A    between atoms: O_20  and  C_23 
REMARK   16  A    between atoms: O_25  and  C_28 
REMARK   17  A    between atoms: C_27  and  C_33 
REMARK   18  A    between atoms: O_29  and  C_32 
REMARK   19  A    between atoms: C_30  and  O_52 
REMARK   20  A    between atoms: O_31  and  C_34 
REMARK   21  A    between atoms: C_33  and  O_57 
REMARK   22  A    between atoms: O_36  and  C_40 
REMARK   23  A    between atoms: C_38  and  C_44 
REMARK   24  A    between atoms: O_39  and  C_44 
REMARK   25  A    between atoms: O_39  and  C_83 
REMARK   26  A    between atoms: O_42  and  C_45 
REMARK   27  A    between atoms: O_47  and  C_51 
REMARK   28  A    between atoms: C_49  and  C_55 
REMARK   29  A    between atoms: O_50  and  C_55 
REMARK   30  A    between atoms: O_50  and  C_61 
REMARK   31  A    between atoms: O_52  and  C_54 
REMARK   32  A    between atoms: C_56  and  O_86 
REMARK   33  A    between atoms: O_57  and  C_67 
REMARK   34  A    between atoms: C_61  and  C_62 
REMARK   35  A    between atoms: C_62  and  O_64 
REMARK   36  A    between atoms: C_67  and  C_68 
REMARK   37  A    between atoms: C_68  and  O_69 
REMARK   38  A    between atoms: C_72  and  C_73 
REMARK   39  A    between atoms: C_73  and  O_74 
REMARK   40  A    between atoms: C_78  and  O_79 
REMARK   41  A    between atoms: C_83  and  O_84 
ROOT
HETATM    1  C   UNL     1       0.212   6.871   8.963  1.00  0.00     0.187 C 
HETATM    2  C   UNL     1      -0.443   8.167   9.520  1.00  0.00     0.180 C 
HETATM    3  C   UNL     1       1.345   6.402   9.902  1.00  0.00     0.183 C 
HETATM    4  C   UNL     1       0.864   6.371  11.374  1.00  0.00     0.204 C 
HETATM    5  C   UNL     1       0.325   7.770  11.724  1.00  0.00     0.292 C 
HETATM    6  O   UNL     1      -0.796   8.053  10.898  1.00  0.00    -0.348 OA
ENDROOT
BRANCH   1   7
HETATM    7  O   UNL     1      -0.776   5.849   8.839  1.00  0.00    -0.348 OA
BRANCH   7   8
HETATM    8  C   UNL     1      -0.897   5.390   7.492  1.00  0.00     0.292 C 
HETATM    9  O   UNL     1      -0.025   6.102   6.628  1.00  0.00    -0.348 OA
HETATM   10  C   UNL     1       0.068   5.494   5.325  1.00  0.00     0.180 C 
HETATM   11  C   UNL     1      -1.232   4.728   4.869  1.00  0.00     0.187 C 
HETATM   12  C   UNL     1      -2.447   5.486   5.437  1.00  0.00     0.183 C 
HETATM   13  C   UNL     1      -2.366   5.520   6.997  1.00  0.00     0.204 C 
BRANCH  10  14
HETATM   14  C   UNL     1       1.329   4.606   5.228  1.00  0.00     0.203 C 
BRANCH  14  15
HETATM   15  O   UNL     1       2.527   5.325   5.421  1.00  0.00    -0.370 OA
BRANCH  15  16
HETATM   16  C   UNL     1       2.756   6.166   4.325  1.00  0.00     0.262 C 
BRANCH  16  17
HETATM   17  C   UNL     1       4.049   5.790   3.681  1.00  0.00     0.321 C 
HETATM   18  O   UNL     1       5.002   6.551   3.733  1.00  0.00    -0.260 OA
BRANCH  17  19
HETATM   19  O   UNL     1       4.175   4.607   3.053  1.00  0.00    -0.147 OA
HETATM   20 Na   UNL     1       3.570   4.347   1.153  1.00  0.00     0.000 Na
ENDBRANCH  17  19
ENDBRANCH  16  17
ENDBRANCH  15  16
ENDBRANCH  14  15
ENDBRANCH  10  14
BRANCH  11  21
HETATM   21  O   UNL     1      -1.333   4.705   3.447  1.00  0.00    -0.348 OA
BRANCH  21  22
HETATM   22  C   UNL     1      -0.549   5.685   2.779  1.00  0.00     0.292 C 
HETATM   23  O   UNL     1      -1.401   6.698   2.222  1.00  0.00    -0.351 OA
HETATM   24  C   UNL     1      -1.539   6.619   0.818  1.00  0.00     0.151 C 
HETATM   25  C   UNL     1      -0.179   6.809   0.099  1.00  0.00     0.068 C 
HETATM   26  C   UNL     1       0.965   6.097   0.857  1.00  0.00     0.154 C 
HETATM   27  C   UNL     1       0.416   4.987   1.767  1.00  0.00     0.202 C 
BRANCH  24  28
HETATM   28  C   UNL     1      -2.549   7.668   0.323  1.00  0.00     0.200 C 
BRANCH  28  29
HETATM   29  O   UNL     1      -3.807   7.536   0.959  1.00  0.00    -0.379 OA
BRANCH  29  30
HETATM   30  C   UNL     1      -4.808   7.121   0.046  1.00  0.00     0.281 C 
BRANCH  30  31
HETATM   31  C   UNL     1      -5.446   5.849   0.522  1.00  0.00     0.313 C 
HETATM   32  O   UNL     1      -6.057   5.126  -0.250  1.00  0.00    -0.260 OA
BRANCH  31  33
HETATM   33  O   UNL     1      -5.337   5.495   1.815  1.00  0.00    -0.148 OA
HETATM   34 Na   UNL     1      -3.639   5.884   2.829  1.00  0.00     0.000 Na
ENDBRANCH  31  33
ENDBRANCH  30  31
ENDBRANCH  29  30
ENDBRANCH  28  29
ENDBRANCH  24  28
BRANCH  26  35
HETATM   35  O   UNL     1       1.976   5.656  -0.013  1.00  0.00    -0.393 OA
HETATM   36  H   UNL     1       1.971   4.663  -0.001  1.00  0.00     0.210 HD
ENDBRANCH  26  35
BRANCH  27  37
HETATM   37  O   UNL     1      -0.263   4.012   1.013  1.00  0.00    -0.388 OA
HETATM   38  H   UNL     1       0.311   3.202   0.999  1.00  0.00     0.210 HD
ENDBRANCH  27  37
ENDBRANCH  21  22
ENDBRANCH  11  21
BRANCH  12  39
HETATM   39  O   UNL     1      -2.518   6.779   4.873  1.00  0.00    -0.390 OA
HETATM   40  H   UNL     1      -1.604   7.106   4.680  1.00  0.00     0.210 HD
ENDBRANCH  12  39
BRANCH  13  41
HETATM   41  O   UNL     1      -3.036   6.647   7.508  1.00  0.00    -0.388 OA
HETATM   42  H   UNL     1      -3.656   6.980   6.808  1.00  0.00     0.210 HD
ENDBRANCH  13  41
ENDBRANCH   7   8
ENDBRANCH   1   7
BRANCH   2  43
HETATM   43  C   UNL     1       0.368   9.466   9.228  1.00  0.00     0.203 C 
BRANCH  43  44
HETATM   44  O   UNL     1      -0.318  10.405   8.421  1.00  0.00    -0.370 OA
BRANCH  44  45
HETATM   45  C   UNL     1       0.273  11.676   8.531  1.00  0.00     0.262 C 
BRANCH  45  46
HETATM   46  C   UNL     1      -0.052  12.324   9.837  1.00  0.00     0.321 C 
HETATM   47  O   UNL     1       0.830  12.740  10.572  1.00  0.00    -0.260 OA
BRANCH  46  48
HETATM   48  O   UNL     1      -1.340  12.434  10.210  1.00  0.00    -0.147 OA
HETATM   49 Na   UNL     1      -2.001  11.333  11.766  1.00  0.00     0.000 Na
ENDBRANCH  46  48
ENDBRANCH  45  46
ENDBRANCH  44  45
ENDBRANCH  43  44
ENDBRANCH   2  43
BRANCH   3  50
HETATM   50  O   UNL     1       1.816   5.144   9.494  1.00  0.00    -0.390 OA
HETATM   51  H   UNL     1       2.803   5.155   9.605  1.00  0.00     0.210 HD
ENDBRANCH   3  50
BRANCH   4  52
HETATM   52  O   UNL     1      -0.157   5.422  11.558  1.00  0.00    -0.388 OA
HETATM   53  H   UNL     1       0.237   4.669  12.070  1.00  0.00     0.210 HD
ENDBRANCH   4  52
BRANCH   5  54
HETATM   54  O   UNL     1      -0.098   7.809  13.082  1.00  0.00    -0.348 OA
BRANCH  54  55
HETATM   55  C   UNL     1       0.665   8.707  13.891  1.00  0.00     0.187 C 
HETATM   56  C   UNL     1       2.143   8.810  13.392  1.00  0.00     0.180 C 
HETATM   57  O   UNL     1       2.678  10.131  13.358  1.00  0.00    -0.348 OA
HETATM   58  C   UNL     1       2.382  10.976  14.455  1.00  0.00     0.292 C 
HETATM   59  C   UNL     1       0.865  10.976  14.827  1.00  0.00     0.204 C 
HETATM   60  C   UNL     1       0.026  10.099  13.874  1.00  0.00     0.183 C 
BRANCH  56  61
HETATM   61  C   UNL     1       3.090   7.858  14.150  1.00  0.00     0.208 C 
BRANCH  61  62
HETATM   62  O   UNL     1       2.518   7.398  15.363  1.00  0.00    -0.327 OA
BRANCH  62  63
HETATM   63  C   UNL     1       3.150   7.840  16.558  1.00  0.00     0.339 C 
HETATM   64  C   UNL     1       4.445   8.542  16.181  1.00  0.00     0.115 C 
HETATM   65  O   UNL     1       2.307   8.749  17.196  1.00  0.00    -0.163 OA
BRANCH  63  66
HETATM   66  O   UNL     1       3.451   6.808  17.458  1.00  0.00    -0.163 OA
HETATM   67 Na   UNL     1       5.327   7.231  18.131  1.00  0.00     0.000 Na
ENDBRANCH  63  66
ENDBRANCH  62  63
ENDBRANCH  61  62
ENDBRANCH  56  61
BRANCH  58  68
HETATM   68  O   UNL     1       2.778  12.283  14.055  1.00  0.00    -0.348 OA
BRANCH  68  69
HETATM   69  C   UNL     1       3.882  12.801  14.785  1.00  0.00     0.187 C 
HETATM   70  C   UNL     1       4.219  14.265  14.315  1.00  0.00     0.177 C 
HETATM   71  O   UNL     1       4.977  15.040  15.257  1.00  0.00    -0.378 OA
HETATM   72  C   UNL     1       5.711  14.234  16.152  1.00  0.00     0.202 C 
HETATM   73  C   UNL     1       4.767  13.408  17.068  1.00  0.00     0.173 C 
HETATM   74  C   UNL     1       3.531  12.874  16.282  1.00  0.00     0.180 C 
BRANCH  70  75
HETATM   75  C   UNL     1       4.904  14.287  12.938  1.00  0.00     0.208 C 
BRANCH  75  76
HETATM   76  O   UNL     1       5.903  13.285  12.829  1.00  0.00    -0.327 OA
BRANCH  76  77
HETATM   77  C   UNL     1       7.175  13.719  12.355  1.00  0.00     0.339 C 
HETATM   78  C   UNL     1       7.430  15.132  12.867  1.00  0.00     0.115 C 
HETATM   79  O   UNL     1       8.146  12.869  12.884  1.00  0.00    -0.163 OA
BRANCH  77  80
HETATM   80  O   UNL     1       7.294  13.708  10.957  1.00  0.00    -0.163 OA
HETATM   81 Na   UNL     1       6.847  15.609  10.372  1.00  0.00     0.000 Na
ENDBRANCH  77  80
ENDBRANCH  76  77
ENDBRANCH  75  76
ENDBRANCH  70  75
BRANCH  73  82
HETATM   82  O   UNL     1       4.370  14.100  18.227  1.00  0.00    -0.391 OA
HETATM   83  H   UNL     1       5.146  14.141  18.846  1.00  0.00     0.210 HD
ENDBRANCH  73  82
BRANCH  74  84
HETATM   84  O   UNL     1       2.378  13.666  16.474  1.00  0.00    -0.390 OA
HETATM   85  H   UNL     1       1.695  13.145  16.967  1.00  0.00     0.210 HD
ENDBRANCH  74  84
ENDBRANCH  68  69
ENDBRANCH  58  68
BRANCH  59  86
HETATM   86  O   UNL     1       0.329  12.268  14.968  1.00  0.00    -0.388 OA
HETATM   87  H   UNL     1       0.783  12.701  15.736  1.00  0.00     0.210 HD
ENDBRANCH  59  86
BRANCH  60  88
HETATM   88  O   UNL     1       0.024  10.640  12.576  1.00  0.00    -0.390 OA
HETATM   89  H   UNL     1       0.688  10.124  12.051  1.00  0.00     0.210 HD
ENDBRANCH  60  88
ENDBRANCH  54  55
ENDBRANCH   5  54
TORSDOF 41
ENDMDL
MODEL 7
REMARK VINA RESULT:      -7.4      3.772      8.236
REMARK WARNING: 32 MAX_TORS EXCEEDED!!!
REMARK  41 active torsions:
REMARK  status: ('A' for Active; 'I' for Inactive)
REMARK    1  A    between atoms: C_1  and  O_29 
REMARK    2  A    between atoms: C_2  and  C_6 
REMARK    3  A    between atoms: C_3  and  O_9 
REMARK    4  A    between atoms: C_4  and  O_88 
REMARK    5  A    between atoms: C_5  and  O_11 
REMARK    6  A    between atoms: C_6  and  O_7 
REMARK    7  A    between atoms: O_7  and  C_72 
REMARK    8  A    between atoms: O_11  and  C_19 
REMARK    9  A    between atoms: O_13  and  C_17 
REMARK   10  A    between atoms: C_15  and  C_22 
REMARK   11  A    between atoms: O_16  and  C_22 
REMARK   12  A    between atoms: O_16  and  C_78 
REMARK   13  A    between atoms: O_18  and  C_21 
REMARK   14  A    between atoms: O_18  and  C_41 
REMARK   15  A    between atoms: O_20  and  C_23 
REMARK   16  A    between atoms: O_25  and  C_28 
REMARK   17  A    between atoms: C_27  and  C_33 
REMARK   18  A    between atoms: O_29  and  C_32 
REMARK   19  A    between atoms: C_30  and  O_52 
REMARK   20  A    between atoms: O_31  and  C_34 
REMARK   21  A    between atoms: C_33  and  O_57 
REMARK   22  A    between atoms: O_36  and  C_40 
REMARK   23  A    between atoms: C_38  and  C_44 
REMARK   24  A    between atoms: O_39  and  C_44 
REMARK   25  A    between atoms: O_39  and  C_83 
REMARK   26  A    between atoms: O_42  and  C_45 
REMARK   27  A    between atoms: O_47  and  C_51 
REMARK   28  A    between atoms: C_49  and  C_55 
REMARK   29  A    between atoms: O_50  and  C_55 
REMARK   30  A    between atoms: O_50  and  C_61 
REMARK   31  A    between atoms: O_52  and  C_54 
REMARK   32  A    between atoms: C_56  and  O_86 
REMARK   33  A    between atoms: O_57  and  C_67 
REMARK   34  A    between atoms: C_61  and  C_62 
REMARK   35  A    between atoms: C_62  and  O_64 
REMARK   36  A    between atoms: C_67  and  C_68 
REMARK   37  A    between atoms: C_68  and  O_69 
REMARK   38  A    between atoms: C_72  and  C_73 
REMARK   39  A    between atoms: C_73  and  O_74 
REMARK   40  A    between atoms: C_78  and  O_79 
REMARK   41  A    between atoms: C_83  and  O_84 
ROOT
HETATM    1  C   UNL     1       0.657   5.972   8.235  1.00  0.00     0.187 C 
HETATM    2  C   UNL     1       0.333   5.332   9.615  1.00  0.00     0.180 C 
HETATM    3  C   UNL     1       2.029   6.681   8.287  1.00  0.00     0.183 C 
HETATM    4  C   UNL     1       3.106   5.755   8.904  1.00  0.00     0.204 C 
HETATM    5  C   UNL     1       2.604   5.302  10.287  1.00  0.00     0.292 C 
HETATM    6  O   UNL     1       1.412   4.546  10.120  1.00  0.00    -0.348 OA
ENDROOT
BRANCH   1   7
HETATM    7  O   UNL     1       0.666   4.961   7.227  1.00  0.00    -0.348 OA
BRANCH   7   8
HETATM    8  C   UNL     1      -0.059   5.366   6.066  1.00  0.00     0.292 C 
HETATM    9  O   UNL     1      -0.058   6.778   5.927  1.00  0.00    -0.348 OA
HETATM   10  C   UNL     1      -0.552   7.199   4.640  1.00  0.00     0.180 C 
HETATM   11  C   UNL     1      -1.615   6.227   4.000  1.00  0.00     0.187 C 
HETATM   12  C   UNL     1      -2.451   5.626   5.146  1.00  0.00     0.183 C 
HETATM   13  C   UNL     1      -1.520   4.834   6.119  1.00  0.00     0.204 C 
BRANCH  10  14
HETATM   14  C   UNL     1       0.620   7.493   3.677  1.00  0.00     0.203 C 
BRANCH  14  15
HETATM   15  O   UNL     1       1.859   7.020   4.154  1.00  0.00    -0.370 OA
BRANCH  15  16
HETATM   16  C   UNL     1       2.146   5.778   3.575  1.00  0.00     0.262 C 
BRANCH  16  17
HETATM   17  C   UNL     1       3.428   5.259   4.139  1.00  0.00     0.321 C 
HETATM   18  O   UNL     1       3.692   5.433   5.318  1.00  0.00    -0.260 OA
BRANCH  17  19
HETATM   19  O   UNL     1       4.289   4.583   3.356  1.00  0.00    -0.147 OA
HETATM   20 Na   UNL     1       5.784   5.510   2.382  1.00  0.00     0.000 Na
ENDBRANCH  17  19
ENDBRANCH  16  17
ENDBRANCH  15  16
ENDBRANCH  14  15
ENDBRANCH  10  14
BRANCH  11  21
HETATM   21  O   UNL     1      -2.487   6.938   3.124  1.00  0.00    -0.348 OA
BRANCH  21  22
HETATM   22  C   UNL     1      -2.605   6.382   1.821  1.00  0.00     0.292 C 
HETATM   23  O   UNL     1      -1.363   5.775   1.433  1.00  0.00    -0.351 OA
HETATM   24  C   UNL     1      -0.641   6.518   0.472  1.00  0.00     0.151 C 
HETATM   25  C   UNL     1      -1.436   6.669  -0.850  1.00  0.00     0.068 C 
HETATM   26  C   UNL     1      -2.940   6.910  -0.580  1.00  0.00     0.154 C 
HETATM   27  C   UNL     1      -3.164   7.461   0.837  1.00  0.00     0.202 C 
BRANCH  24  28
HETATM   28  C   UNL     1       0.718   5.852   0.197  1.00  0.00     0.200 C 
BRANCH  28  29
HETATM   29  O   UNL     1       1.797   6.747   0.395  1.00  0.00    -0.379 OA
BRANCH  29  30
HETATM   30  C   UNL     1       2.879   6.454  -0.473  1.00  0.00     0.281 C 
BRANCH  30  31
HETATM   31  C   UNL     1       4.162   6.397   0.303  1.00  0.00     0.313 C 
HETATM   32  O   UNL     1       5.089   5.694  -0.069  1.00  0.00    -0.260 OA
BRANCH  31  33
HETATM   33  O   UNL     1       4.298   7.137   1.418  1.00  0.00    -0.148 OA
HETATM   34 Na   UNL     1       2.783   8.312   2.041  1.00  0.00     0.000 Na
ENDBRANCH  31  33
ENDBRANCH  30  31
ENDBRANCH  29  30
ENDBRANCH  28  29
ENDBRANCH  24  28
BRANCH  26  35
HETATM   35  O   UNL     1      -3.534   7.694  -1.583  1.00  0.00    -0.393 OA
HETATM   36  H   UNL     1      -3.244   8.633  -1.441  1.00  0.00     0.210 HD
ENDBRANCH  26  35
BRANCH  27  37
HETATM   37  O   UNL     1      -2.501   8.690   1.007  1.00  0.00    -0.388 OA
HETATM   38  H   UNL     1      -2.208   8.990   0.107  1.00  0.00     0.210 HD
ENDBRANCH  27  37
ENDBRANCH  21  22
ENDBRANCH  11  21
BRANCH  12  39
HETATM   39  O   UNL     1      -3.176   6.644   5.804  1.00  0.00    -0.390 OA
HETATM   40  H   UNL     1      -4.014   6.826   5.308  1.00  0.00     0.210 HD
ENDBRANCH  12  39
BRANCH  13  41
HETATM   41  O   UNL     1      -2.064   4.804   7.417  1.00  0.00    -0.388 OA
HETATM   42  H   UNL     1      -1.385   5.166   8.044  1.00  0.00     0.210 HD
ENDBRANCH  13  41
ENDBRANCH   7   8
ENDBRANCH   1   7
BRANCH   2  43
HETATM   43  C   UNL     1      -0.204   6.341  10.674  1.00  0.00     0.203 C 
BRANCH  43  44
HETATM   44  O   UNL     1       0.323   7.648  10.545  1.00  0.00    -0.370 OA
BRANCH  44  45
HETATM   45  C   UNL     1      -0.707   8.573  10.299  1.00  0.00     0.262 C 
BRANCH  45  46
HETATM   46  C   UNL     1      -0.305   9.591   9.282  1.00  0.00     0.321 C 
HETATM   47  O   UNL     1       0.127  10.682   9.618  1.00  0.00    -0.260 OA
BRANCH  46  48
HETATM   48  O   UNL     1      -0.440   9.297   7.976  1.00  0.00    -0.147 OA
HETATM   49 Na   UNL     1      -1.801   7.914   7.424  1.00  0.00     0.000 Na
ENDBRANCH  46  48
ENDBRANCH  45  46
ENDBRANCH  44  45
ENDBRANCH  43  44
ENDBRANCH   2  43
BRANCH   3  50
HETATM   50  O   UNL     1       2.398   7.105   7.000  1.00  0.00    -0.390 OA
HETATM   51  H   UNL     1       3.330   7.443   7.064  1.00  0.00     0.210 HD
ENDBRANCH   3  50
BRANCH   4  52
HETATM   52  O   UNL     1       3.329   4.623   8.099  1.00  0.00    -0.388 OA
HETATM   53  H   UNL     1       4.283   4.646   7.826  1.00  0.00     0.210 HD
ENDBRANCH   4  52
BRANCH   5  54
HETATM   54  O   UNL     1       3.574   4.475  10.917  1.00  0.00    -0.348 OA
BRANCH  54  55
HETATM   55  C   UNL     1       3.591   4.598  12.341  1.00  0.00     0.187 C 
HETATM   56  C   UNL     1       2.734   5.815  12.819  1.00  0.00     0.180 C 
HETATM   57  O   UNL     1       1.905   5.562  13.950  1.00  0.00    -0.348 OA
HETATM   58  C   UNL     1       2.466   4.805  15.007  1.00  0.00     0.292 C 
HETATM   59  C   UNL     1       3.177   3.506  14.509  1.00  0.00     0.204 C 
HETATM   60  C   UNL     1       3.052   3.315  12.983  1.00  0.00     0.183 C 
BRANCH  56  61
HETATM   61  C   UNL     1       3.582   7.084  13.038  1.00  0.00     0.208 C 
BRANCH  61  62
HETATM   62  O   UNL     1       2.804   8.160  13.535  1.00  0.00    -0.327 OA
BRANCH  62  63
HETATM   63  C   UNL     1       3.190   8.674  14.804  1.00  0.00     0.339 C 
HETATM   64  C   UNL     1       3.673  10.104  14.612  1.00  0.00     0.115 C 
HETATM   65  O   UNL     1       2.074   8.679  15.639  1.00  0.00    -0.163 OA
BRANCH  63  66
HETATM   66  O   UNL     1       4.209   7.943  15.430  1.00  0.00    -0.163 OA
HETATM   67 Na   UNL     1       5.660   9.313  15.841  1.00  0.00     0.000 Na
ENDBRANCH  63  66
ENDBRANCH  62  63
ENDBRANCH  61  62
ENDBRANCH  56  61
BRANCH  58  68
HETATM   68  O   UNL     1       1.379   4.461  15.858  1.00  0.00    -0.348 OA
BRANCH  68  69
HETATM   69  C   UNL     1       0.100   4.723  15.297  1.00  0.00     0.187 C 
HETATM   70  C   UNL     1      -0.975   3.736  15.886  1.00  0.00     0.177 C 
HETATM   71  O   UNL     1      -2.335   4.183  15.760  1.00  0.00    -0.378 OA
HETATM   72  C   UNL     1      -2.502   5.111  14.713  1.00  0.00     0.202 C 
HETATM   73  C   UNL     1      -1.733   6.429  15.000  1.00  0.00     0.173 C 
HETATM   74  C   UNL     1      -0.348   6.151  15.657  1.00  0.00     0.180 C 
BRANCH  70  75
HETATM   75  C   UNL     1      -0.830   2.315  15.316  1.00  0.00     0.208 C 
BRANCH  75  76
HETATM   76  O   UNL     1      -0.751   2.319  13.900  1.00  0.00    -0.327 OA
BRANCH  76  77
HETATM   77  C   UNL     1      -0.879   1.051  13.262  1.00  0.00     0.339 C 
HETATM   78  C   UNL     1       0.042   0.058  13.962  1.00  0.00     0.115 C 
HETATM   79  O   UNL     1      -2.197   0.622  13.414  1.00  0.00    -0.163 OA
BRANCH  77  80
HETATM   80  O   UNL     1      -0.577   1.070  11.893  1.00  0.00    -0.163 OA
HETATM   81 Na   UNL     1      -0.208   3.027  11.458  1.00  0.00     0.000 Na
ENDBRANCH  77  80
ENDBRANCH  76  77
ENDBRANCH  75  76
ENDBRANCH  70  75
BRANCH  73  82
HETATM   82  O   UNL     1      -2.477   7.353  15.758  1.00  0.00    -0.391 OA
HETATM   83  H   UNL     1      -2.620   8.165  15.206  1.00  0.00     0.210 HD
ENDBRANCH  73  82
BRANCH  74  84
HETATM   84  O   UNL     1      -0.364   6.316  17.060  1.00  0.00    -0.390 OA
HETATM   85  H   UNL     1      -0.846   5.559  17.478  1.00  0.00     0.210 HD
ENDBRANCH  74  84
ENDBRANCH  68  69
ENDBRANCH  58  68
BRANCH  59  86
HETATM   86  O   UNL     1       2.792   2.357  15.220  1.00  0.00    -0.388 OA
HETATM   87  H   UNL     1       1.948   2.023  14.820  1.00  0.00     0.210 HD
ENDBRANCH  59  86
BRANCH  60  88
HETATM   88  O   UNL     1       1.713   3.091  12.620  1.00  0.00    -0.390 OA
HETATM   89  H   UNL     1       1.316   3.979  12.429  1.00  0.00     0.210 HD
ENDBRANCH  60  88
ENDBRANCH  54  55
ENDBRANCH   5  54
TORSDOF 41
ENDMDL
MODEL 8
REMARK VINA RESULT:      -7.2      2.197      4.735
REMARK WARNING: 32 MAX_TORS EXCEEDED!!!
REMARK  41 active torsions:
REMARK  status: ('A' for Active; 'I' for Inactive)
REMARK    1  A    between atoms: C_1  and  O_29 
REMARK    2  A    between atoms: C_2  and  C_6 
REMARK    3  A    between atoms: C_3  and  O_9 
REMARK    4  A    between atoms: C_4  and  O_88 
REMARK    5  A    between atoms: C_5  and  O_11 
REMARK    6  A    between atoms: C_6  and  O_7 
REMARK    7  A    between atoms: O_7  and  C_72 
REMARK    8  A    between atoms: O_11  and  C_19 
REMARK    9  A    between atoms: O_13  and  C_17 
REMARK   10  A    between atoms: C_15  and  C_22 
REMARK   11  A    between atoms: O_16  and  C_22 
REMARK   12  A    between atoms: O_16  and  C_78 
REMARK   13  A    between atoms: O_18  and  C_21 
REMARK   14  A    between atoms: O_18  and  C_41 
REMARK   15  A    between atoms: O_20  and  C_23 
REMARK   16  A    between atoms: O_25  and  C_28 
REMARK   17  A    between atoms: C_27  and  C_33 
REMARK   18  A    between atoms: O_29  and  C_32 
REMARK   19  A    between atoms: C_30  and  O_52 
REMARK   20  A    between atoms: O_31  and  C_34 
REMARK   21  A    between atoms: C_33  and  O_57 
REMARK   22  A    between atoms: O_36  and  C_40 
REMARK   23  A    between atoms: C_38  and  C_44 
REMARK   24  A    between atoms: O_39  and  C_44 
REMARK   25  A    between atoms: O_39  and  C_83 
REMARK   26  A    between atoms: O_42  and  C_45 
REMARK   27  A    between atoms: O_47  and  C_51 
REMARK   28  A    between atoms: C_49  and  C_55 
REMARK   29  A    between atoms: O_50  and  C_55 
REMARK   30  A    between atoms: O_50  and  C_61 
REMARK   31  A    between atoms: O_52  and  C_54 
REMARK   32  A    between atoms: C_56  and  O_86 
REMARK   33  A    between atoms: O_57  and  C_67 
REMARK   34  A    between atoms: C_61  and  C_62 
REMARK   35  A    between atoms: C_62  and  O_64 
REMARK   36  A    between atoms: C_67  and  C_68 
REMARK   37  A    between atoms: C_68  and  O_69 
REMARK   38  A    between atoms: C_72  and  C_73 
REMARK   39  A    between atoms: C_73  and  O_74 
REMARK   40  A    between atoms: C_78  and  O_79 
REMARK   41  A    between atoms: C_83  and  O_84 
ROOT
HETATM    1  C   UNL     1       0.187   6.733   8.535  1.00  0.00     0.187 C 
HETATM    2  C   UNL     1      -0.413   8.078   9.035  1.00  0.00     0.180 C 
HETATM    3  C   UNL     1       1.148   6.153   9.597  1.00  0.00     0.183 C 
HETATM    4  C   UNL     1       0.486   6.152  10.998  1.00  0.00     0.204 C 
HETATM    5  C   UNL     1       0.034   7.590  11.308  1.00  0.00     0.292 C 
HETATM    6  O   UNL     1      -0.945   7.982  10.356  1.00  0.00    -0.348 OA
ENDROOT
BRANCH   1   7
HETATM    7  O   UNL     1      -0.865   5.806   8.268  1.00  0.00    -0.348 OA
BRANCH   7   8
HETATM    8  C   UNL     1      -0.950   5.489   6.879  1.00  0.00     0.292 C 
HETATM    9  O   UNL     1      -0.043   6.272   6.118  1.00  0.00    -0.348 OA
HETATM   10  C   UNL     1       0.082   5.797   4.763  1.00  0.00     0.180 C 
HETATM   11  C   UNL     1      -1.214   5.103   4.193  1.00  0.00     0.187 C 
HETATM   12  C   UNL     1      -2.436   5.819   4.801  1.00  0.00     0.183 C 
HETATM   13  C   UNL     1      -2.402   5.693   6.357  1.00  0.00     0.204 C 
BRANCH  10  14
HETATM   14  C   UNL     1       1.333   4.904   4.611  1.00  0.00     0.203 C 
BRANCH  14  15
HETATM   15  O   UNL     1       2.541   5.614   4.766  1.00  0.00    -0.370 OA
BRANCH  15  16
HETATM   16  C   UNL     1       3.021   6.009   3.511  1.00  0.00     0.262 C 
BRANCH  16  17
HETATM   17  C   UNL     1       4.268   5.248   3.202  1.00  0.00     0.321 C 
HETATM   18  O   UNL     1       4.746   4.493   4.034  1.00  0.00    -0.260 OA
BRANCH  17  19
HETATM   19  O   UNL     1       4.862   5.378   2.001  1.00  0.00    -0.147 OA
HETATM   20 Na   UNL     1       3.826   5.220   0.285  1.00  0.00     0.000 Na
ENDBRANCH  17  19
ENDBRANCH  16  17
ENDBRANCH  15  16
ENDBRANCH  14  15
ENDBRANCH  10  14
BRANCH  11  21
HETATM   21  O   UNL     1      -1.272   5.227   2.774  1.00  0.00    -0.348 OA
BRANCH  21  22
HETATM   22  C   UNL     1      -0.570   6.343   2.244  1.00  0.00     0.292 C 
HETATM   23  O   UNL     1      -1.497   7.281   1.676  1.00  0.00    -0.351 OA
HETATM   24  C   UNL     1      -1.504   7.290   0.263  1.00  0.00     0.151 C 
HETATM   25  C   UNL     1      -0.125   7.701  -0.314  1.00  0.00     0.068 C 
HETATM   26  C   UNL     1       1.034   7.082   0.502  1.00  0.00     0.154 C 
HETATM   27  C   UNL     1       0.560   5.848   1.285  1.00  0.00     0.202 C 
BRANCH  24  28
HETATM   28  C   UNL     1      -2.597   8.240  -0.257  1.00  0.00     0.200 C 
BRANCH  28  29
HETATM   29  O   UNL     1      -3.893   7.823   0.134  1.00  0.00    -0.379 OA
BRANCH  29  30
HETATM   30  C   UNL     1      -4.271   6.624  -0.520  1.00  0.00     0.281 C 
BRANCH  30  31
HETATM   31  C   UNL     1      -4.942   5.697   0.450  1.00  0.00     0.313 C 
HETATM   32  O   UNL     1      -4.507   5.549   1.582  1.00  0.00    -0.260 OA
BRANCH  31  33
HETATM   33  O   UNL     1      -6.046   5.025   0.072  1.00  0.00    -0.148 OA
HETATM   34 Na   UNL     1      -7.591   6.012  -0.767  1.00  0.00     0.000 Na
ENDBRANCH  31  33
ENDBRANCH  30  31
ENDBRANCH  29  30
ENDBRANCH  28  29
ENDBRANCH  24  28
BRANCH  26  35
HETATM   35  O   UNL     1       2.164   6.836  -0.297  1.00  0.00    -0.393 OA
HETATM   36  H   UNL     1       1.885   6.234  -1.035  1.00  0.00     0.210 HD
ENDBRANCH  26  35
BRANCH  27  37
HETATM   37  O   UNL     1       0.080   4.855   0.411  1.00  0.00    -0.388 OA
HETATM   38  H   UNL     1       0.192   3.983   0.872  1.00  0.00     0.210 HD
ENDBRANCH  27  37
ENDBRANCH  21  22
ENDBRANCH  11  21
BRANCH  12  39
HETATM   39  O   UNL     1      -2.473   7.164   4.370  1.00  0.00    -0.390 OA
HETATM   40  H   UNL     1      -3.344   7.565   4.615  1.00  0.00     0.210 HD
ENDBRANCH  12  39
BRANCH  13  41
HETATM   41  O   UNL     1      -3.072   6.773   6.961  1.00  0.00    -0.388 OA
HETATM   42  H   UNL     1      -3.506   6.442   7.789  1.00  0.00     0.210 HD
ENDBRANCH  13  41
ENDBRANCH   7   8
ENDBRANCH   1   7
BRANCH   2  43
HETATM   43  C   UNL     1       0.540   9.301   8.873  1.00  0.00     0.203 C 
BRANCH  43  44
HETATM   44  O   UNL     1       0.328  10.043   7.687  1.00  0.00    -0.370 OA
BRANCH  44  45
HETATM   45  C   UNL     1       0.695  11.388   7.875  1.00  0.00     0.262 C 
BRANCH  45  46
HETATM   46  C   UNL     1      -0.103  12.031   8.962  1.00  0.00     0.321 C 
HETATM   47  O   UNL     1       0.444  12.605   9.891  1.00  0.00    -0.260 OA
BRANCH  46  48
HETATM   48  O   UNL     1      -1.446  11.959   8.917  1.00  0.00    -0.147 OA
HETATM   49 Na   UNL     1      -2.307  10.554   7.753  1.00  0.00     0.000 Na
ENDBRANCH  46  48
ENDBRANCH  45  46
ENDBRANCH  44  45
ENDBRANCH  43  44
ENDBRANCH   2  43
BRANCH   3  50
HETATM   50  O   UNL     1       1.552   4.862   9.223  1.00  0.00    -0.390 OA
HETATM   51  H   UNL     1       2.538   4.824   9.336  1.00  0.00     0.210 HD
ENDBRANCH   3  50
BRANCH   4  52
HETATM   52  O   UNL     1      -0.631   5.297  11.034  1.00  0.00    -0.388 OA
HETATM   53  H   UNL     1      -0.891   5.122  10.092  1.00  0.00     0.210 HD
ENDBRANCH   4  52
BRANCH   5  54
HETATM   54  O   UNL     1      -0.550   7.654  12.603  1.00  0.00    -0.348 OA
BRANCH  54  55
HETATM   55  C   UNL     1       0.229   8.396  13.545  1.00  0.00     0.187 C 
HETATM   56  C   UNL     1       1.760   8.204  13.296  1.00  0.00     0.180 C 
HETATM   57  O   UNL     1       2.539   9.396  13.376  1.00  0.00    -0.348 OA
HETATM   58  C   UNL     1       2.236  10.296  14.426  1.00  0.00     0.292 C 
HETATM   59  C   UNL     1       0.708  10.595  14.545  1.00  0.00     0.204 C 
HETATM   60  C   UNL     1      -0.118   9.886  13.451  1.00  0.00     0.183 C 
BRANCH  56  61
HETATM   61  C   UNL     1       2.368   7.096  14.179  1.00  0.00     0.208 C 
BRANCH  61  62
HETATM   62  O   UNL     1       2.036   5.802  13.707  1.00  0.00    -0.327 OA
BRANCH  62  63
HETATM   63  C   UNL     1       3.127   4.987  13.298  1.00  0.00     0.339 C 
HETATM   64  C   UNL     1       3.367   3.937  14.372  1.00  0.00     0.115 C 
HETATM   65  O   UNL     1       2.783   4.350  12.106  1.00  0.00    -0.163 OA
BRANCH  63  66
HETATM   66  O   UNL     1       4.321   5.693  13.094  1.00  0.00    -0.163 OA
HETATM   67 Na   UNL     1       3.960   6.878  11.477  1.00  0.00     0.000 Na
ENDBRANCH  63  66
ENDBRANCH  62  63
ENDBRANCH  61  62
ENDBRANCH  56  61
BRANCH  58  68
HETATM   68  O   UNL     1       2.938  11.496  14.123  1.00  0.00    -0.348 OA
BRANCH  68  69
HETATM   69  C   UNL     1       4.061  11.736  14.960  1.00  0.00     0.187 C 
HETATM   70  C   UNL     1       4.830  13.029  14.497  1.00  0.00     0.177 C 
HETATM   71  O   UNL     1       5.671  13.620  15.500  1.00  0.00    -0.378 OA
HETATM   72  C   UNL     1       6.063  12.694  16.489  1.00  0.00     0.202 C 
HETATM   73  C   UNL     1       4.843  12.200  17.312  1.00  0.00     0.173 C 
HETATM   74  C   UNL     1       3.594  11.978  16.406  1.00  0.00     0.180 C 
BRANCH  70  75
HETATM   75  C   UNL     1       5.631  12.794  13.205  1.00  0.00     0.208 C 
BRANCH  75  76
HETATM   76  O   UNL     1       5.949  14.013  12.552  1.00  0.00    -0.327 OA
BRANCH  76  77
HETATM   77  C   UNL     1       7.323  14.208  12.228  1.00  0.00     0.339 C 
HETATM   78  C   UNL     1       8.146  13.131  12.924  1.00  0.00     0.115 C 
HETATM   79  O   UNL     1       7.467  14.060  10.848  1.00  0.00    -0.163 OA
BRANCH  77  80
HETATM   80  O   UNL     1       7.819  15.470  12.589  1.00  0.00    -0.163 OA
HETATM   81 Na   UNL     1       7.471  16.659  10.970  1.00  0.00     0.000 Na
ENDBRANCH  77  80
ENDBRANCH  76  77
ENDBRANCH  75  76
ENDBRANCH  70  75
BRANCH  73  82
HETATM   82  O   UNL     1       4.534  13.033  18.404  1.00  0.00    -0.391 OA
HETATM   83  H   UNL     1       4.361  13.947  18.059  1.00  0.00     0.210 HD
ENDBRANCH  73  82
BRANCH  74  84
HETATM   84  O   UNL     1       2.687  13.059  16.450  1.00  0.00    -0.390 OA
HETATM   85  H   UNL     1       2.595  13.453  15.546  1.00  0.00     0.210 HD
ENDBRANCH  74  84
ENDBRANCH  68  69
ENDBRANCH  58  68
BRANCH  59  86
HETATM   86  O   UNL     1       0.416  11.967  14.623  1.00  0.00    -0.388 OA
HETATM   87  H   UNL     1       1.266  12.464  14.506  1.00  0.00     0.210 HD
ENDBRANCH  59  86
BRANCH  60  88
HETATM   88  O   UNL     1       0.198  10.401  12.182  1.00  0.00    -0.390 OA
HETATM   89  H   UNL     1       0.264  11.385  12.281  1.00  0.00     0.210 HD
ENDBRANCH  60  88
ENDBRANCH  54  55
ENDBRANCH   5  54
TORSDOF 41
ENDMDL
MODEL 9
REMARK VINA RESULT:      -7.2      1.730      3.196
REMARK WARNING: 32 MAX_TORS EXCEEDED!!!
REMARK  41 active torsions:
REMARK  status: ('A' for Active; 'I' for Inactive)
REMARK    1  A    between atoms: C_1  and  O_29 
REMARK    2  A    between atoms: C_2  and  C_6 
REMARK    3  A    between atoms: C_3  and  O_9 
REMARK    4  A    between atoms: C_4  and  O_88 
REMARK    5  A    between atoms: C_5  and  O_11 
REMARK    6  A    between atoms: C_6  and  O_7 
REMARK    7  A    between atoms: O_7  and  C_72 
REMARK    8  A    between atoms: O_11  and  C_19 
REMARK    9  A    between atoms: O_13  and  C_17 
REMARK   10  A    between atoms: C_15  and  C_22 
REMARK   11  A    between atoms: O_16  and  C_22 
REMARK   12  A    between atoms: O_16  and  C_78 
REMARK   13  A    between atoms: O_18  and  C_21 
REMARK   14  A    between atoms: O_18  and  C_41 
REMARK   15  A    between atoms: O_20  and  C_23 
REMARK   16  A    between atoms: O_25  and  C_28 
REMARK   17  A    between atoms: C_27  and  C_33 
REMARK   18  A    between atoms: O_29  and  C_32 
REMARK   19  A    between atoms: C_30  and  O_52 
REMARK   20  A    between atoms: O_31  and  C_34 
REMARK   21  A    between atoms: C_33  and  O_57 
REMARK   22  A    between atoms: O_36  and  C_40 
REMARK   23  A    between atoms: C_38  and  C_44 
REMARK   24  A    between atoms: O_39  and  C_44 
REMARK   25  A    between atoms: O_39  and  C_83 
REMARK   26  A    between atoms: O_42  and  C_45 
REMARK   27  A    between atoms: O_47  and  C_51 
REMARK   28  A    between atoms: C_49  and  C_55 
REMARK   29  A    between atoms: O_50  and  C_55 
REMARK   30  A    between atoms: O_50  and  C_61 
REMARK   31  A    between atoms: O_52  and  C_54 
REMARK   32  A    between atoms: C_56  and  O_86 
REMARK   33  A    between atoms: O_57  and  C_67 
REMARK   34  A    between atoms: C_61  and  C_62 
REMARK   35  A    between atoms: C_62  and  O_64 
REMARK   36  A    between atoms: C_67  and  C_68 
REMARK   37  A    between atoms: C_68  and  O_69 
REMARK   38  A    between atoms: C_72  and  C_73 
REMARK   39  A    between atoms: C_73  and  O_74 
REMARK   40  A    between atoms: C_78  and  O_79 
REMARK   41  A    between atoms: C_83  and  O_84 
ROOT
HETATM    1  C   UNL     1      -0.570   6.655  11.104  1.00  0.00     0.187 C 
HETATM    2  C   UNL     1       0.761   6.689  11.908  1.00  0.00     0.180 C 
HETATM    3  C   UNL     1      -1.746   7.098  12.004  1.00  0.00     0.183 C 
HETATM    4  C   UNL     1      -1.406   8.413  12.748  1.00  0.00     0.204 C 
HETATM    5  C   UNL     1      -0.096   8.191  13.526  1.00  0.00     0.292 C 
HETATM    6  O   UNL     1       0.949   7.922  12.602  1.00  0.00    -0.348 OA
ENDROOT
BRANCH   1   7
HETATM    7  O   UNL     1      -0.469   7.517   9.971  1.00  0.00    -0.348 OA
BRANCH   7   8
HETATM    8  C   UNL     1      -0.279   6.781   8.762  1.00  0.00     0.292 C 
HETATM    9  O   UNL     1       0.617   7.452   7.889  1.00  0.00    -0.348 OA
HETATM   10  C   UNL     1       1.029   6.620   6.787  1.00  0.00     0.180 C 
HETATM   11  C   UNL     1      -0.041   5.552   6.341  1.00  0.00     0.187 C 
HETATM   12  C   UNL     1      -1.436   6.173   6.543  1.00  0.00     0.183 C 
HETATM   13  C   UNL     1      -1.639   6.536   8.049  1.00  0.00     0.204 C 
BRANCH  10  14
HETATM   14  C   UNL     1       2.405   5.978   7.074  1.00  0.00     0.203 C 
BRANCH  14  15
HETATM   15  O   UNL     1       2.426   5.226   8.268  1.00  0.00    -0.370 OA
BRANCH  15  16
HETATM   16  C   UNL     1       3.750   5.006   8.665  1.00  0.00     0.262 C 
BRANCH  16  17
HETATM   17  C   UNL     1       3.772   4.628  10.109  1.00  0.00     0.321 C 
HETATM   18  O   UNL     1       3.387   3.524  10.459  1.00  0.00    -0.260 OA
BRANCH  17  19
HETATM   19  O   UNL     1       4.229   5.496  11.030  1.00  0.00    -0.147 OA
HETATM   20 Na   UNL     1       3.525   7.376  11.155  1.00  0.00     0.000 Na
ENDBRANCH  17  19
ENDBRANCH  16  17
ENDBRANCH  15  16
ENDBRANCH  14  15
ENDBRANCH  10  14
BRANCH  11  21
HETATM   21  O   UNL     1       0.117   5.223   4.963  1.00  0.00    -0.348 OA
BRANCH  21  22
HETATM   22  C   UNL     1       0.913   6.137   4.220  1.00  0.00     0.292 C 
HETATM   23  O   UNL     1       0.069   7.058   3.510  1.00  0.00    -0.351 OA
HETATM   24  C   UNL     1       0.001   6.812   2.120  1.00  0.00     0.151 C 
HETATM   25  C   UNL     1       1.390   6.949   1.446  1.00  0.00     0.068 C 
HETATM   26  C   UNL     1       2.510   6.359   2.334  1.00  0.00     0.154 C 
HETATM   27  C   UNL     1       1.938   5.350   3.342  1.00  0.00     0.202 C 
BRANCH  24  28
HETATM   28  C   UNL     1      -1.004   7.771   1.459  1.00  0.00     0.200 C 
BRANCH  28  29
HETATM   29  O   UNL     1      -2.050   7.076   0.805  1.00  0.00    -0.379 OA
BRANCH  29  30
HETATM   30  C   UNL     1      -3.321   7.503   1.263  1.00  0.00     0.281 C 
BRANCH  30  31
HETATM   31  C   UNL     1      -3.736   6.699   2.460  1.00  0.00     0.313 C 
HETATM   32  O   UNL     1      -3.356   7.001   3.581  1.00  0.00    -0.260 OA
BRANCH  31  33
HETATM   33  O   UNL     1      -4.544   5.636   2.298  1.00  0.00    -0.148 OA
HETATM   34 Na   UNL     1      -4.579   4.651   0.539  1.00  0.00     0.000 Na
ENDBRANCH  31  33
ENDBRANCH  30  31
ENDBRANCH  29  30
ENDBRANCH  28  29
ENDBRANCH  24  28
BRANCH  26  35
HETATM   35  O   UNL     1       3.570   5.845   1.569  1.00  0.00    -0.393 OA
HETATM   36  H   UNL     1       4.417   6.093   2.024  1.00  0.00     0.210 HD
ENDBRANCH  26  35
BRANCH  27  37
HETATM   37  O   UNL     1       1.315   4.277   2.678  1.00  0.00    -0.388 OA
HETATM   38  H   UNL     1       1.900   4.028   1.915  1.00  0.00     0.210 HD
ENDBRANCH  27  37
ENDBRANCH  21  22
ENDBRANCH  11  21
BRANCH  12  39
HETATM   39  O   UNL     1      -1.598   7.289   5.693  1.00  0.00    -0.390 OA
HETATM   40  H   UNL     1      -2.055   7.007   4.861  1.00  0.00     0.210 HD
ENDBRANCH  12  39
BRANCH  13  41
HETATM   41  O   UNL     1      -2.550   7.600   8.188  1.00  0.00    -0.388 OA
HETATM   42  H   UNL     1      -2.271   8.326   7.571  1.00  0.00     0.210 HD
ENDBRANCH  13  41
ENDBRANCH   7   8
ENDBRANCH   1   7
BRANCH   2  43
HETATM   43  C   UNL     1       0.976   5.455  12.836  1.00  0.00     0.203 C 
BRANCH  43  44
HETATM   44  O   UNL     1       2.223   5.446  13.504  1.00  0.00    -0.370 OA
BRANCH  44  45
HETATM   45  C   UNL     1       2.111   4.804  14.750  1.00  0.00     0.262 C 
BRANCH  45  46
HETATM   46  C   UNL     1       2.728   3.444  14.728  1.00  0.00     0.321 C 
HETATM   47  O   UNL     1       2.927   2.824  15.760  1.00  0.00    -0.260 OA
BRANCH  46  48
HETATM   48  O   UNL     1       3.083   2.906  13.546  1.00  0.00    -0.147 OA
HETATM   49 Na   UNL     1       4.813   3.493  12.690  1.00  0.00     0.000 Na
ENDBRANCH  46  48
ENDBRANCH  45  46
ENDBRANCH  44  45
ENDBRANCH  43  44
ENDBRANCH   2  43
BRANCH   3  50
HETATM   50  O   UNL     1      -2.912   7.235  11.234  1.00  0.00    -0.390 OA
HETATM   51  H   UNL     1      -2.946   8.179  10.927  1.00  0.00     0.210 HD
ENDBRANCH   3  50
BRANCH   4  52
HETATM   52  O   UNL     1      -1.234   9.480  11.848  1.00  0.00    -0.388 OA
HETATM   53  H   UNL     1      -0.303   9.426  11.510  1.00  0.00     0.210 HD
ENDBRANCH   4  52
BRANCH   5  54
HETATM   54  O   UNL     1       0.244   9.360  14.261  1.00  0.00    -0.348 OA
BRANCH  54  55
HETATM   55  C   UNL     1       1.489   9.941  13.864  1.00  0.00     0.187 C 
HETATM   56  C   UNL     1       1.323  11.451  13.497  1.00  0.00     0.180 C 
HETATM   57  O   UNL     1       2.342  12.311  14.003  1.00  0.00    -0.348 OA
HETATM   58  C   UNL     1       3.677  11.845  13.928  1.00  0.00     0.292 C 
HETATM   59  C   UNL     1       3.838  10.384  14.456  1.00  0.00     0.204 C 
HETATM   60  C   UNL     1       2.514   9.803  14.995  1.00  0.00     0.183 C 
BRANCH  56  61
HETATM   61  C   UNL     1       1.125  11.673  11.985  1.00  0.00     0.208 C 
BRANCH  61  62
HETATM   62  O   UNL     1      -0.218  11.998  11.669  1.00  0.00    -0.327 OA
BRANCH  62  63
HETATM   63  C   UNL     1      -0.495  12.241  10.295  1.00  0.00     0.339 C 
HETATM   64  C   UNL     1      -1.549  13.335  10.208  1.00  0.00     0.115 C 
HETATM   65  O   UNL     1       0.674  12.684   9.679  1.00  0.00    -0.163 OA
BRANCH  63  66
HETATM   66  O   UNL     1      -0.964  11.118   9.601  1.00  0.00    -0.163 OA
HETATM   67 Na   UNL     1       0.332   9.623  10.085  1.00  0.00     0.000 Na
ENDBRANCH  63  66
ENDBRANCH  62  63
ENDBRANCH  61  62
ENDBRANCH  56  61
BRANCH  58  68
HETATM   68  O   UNL     1       4.444  12.734  14.732  1.00  0.00    -0.348 OA
BRANCH  68  69
HETATM   69  C   UNL     1       5.217  13.666  13.988  1.00  0.00     0.187 C 
HETATM   70  C   UNL     1       6.231  14.418  14.928  1.00  0.00     0.177 C 
HETATM   71  O   UNL     1       7.345  15.019  14.249  1.00  0.00    -0.378 OA
HETATM   72  C   UNL     1       7.072  15.283  12.892  1.00  0.00     0.202 C 
HETATM   73  C   UNL     1       6.856  13.968  12.095  1.00  0.00     0.173 C 
HETATM   74  C   UNL     1       6.046  12.925  12.924  1.00  0.00     0.180 C 
BRANCH  70  75
HETATM   75  C   UNL     1       5.531  15.457  15.820  1.00  0.00     0.208 C 
BRANCH  75  76
HETATM   76  O   UNL     1       5.374  14.990  17.150  1.00  0.00    -0.327 OA
BRANCH  76  77
HETATM   77  C   UNL     1       4.031  14.833  17.603  1.00  0.00     0.339 C 
HETATM   78  C   UNL     1       3.824  15.714  18.829  1.00  0.00     0.115 C 
HETATM   79  O   UNL     1       3.179  15.269  16.588  1.00  0.00    -0.163 OA
BRANCH  77  80
HETATM   80  O   UNL     1       3.690  13.511  17.925  1.00  0.00    -0.163 OA
HETATM   81 Na   UNL     1       2.531  12.869  16.376  1.00  0.00     0.000 Na
ENDBRANCH  77  80
ENDBRANCH  76  77
ENDBRANCH  75  76
ENDBRANCH  70  75
BRANCH  73  82
HETATM   82  O   UNL     1       8.052  13.410  11.607  1.00  0.00    -0.391 OA
HETATM   83  H   UNL     1       8.772  13.593  12.265  1.00  0.00     0.210 HD
ENDBRANCH  73  82
BRANCH  74  84
HETATM   84  O   UNL     1       6.870  11.955  13.536  1.00  0.00    -0.390 OA
HETATM   85  H   UNL     1       7.475  12.395  14.185  1.00  0.00     0.210 HD
ENDBRANCH  74  84
ENDBRANCH  68  69
ENDBRANCH  58  68
BRANCH  59  86
HETATM   86  O   UNL     1       4.892  10.240  15.374  1.00  0.00    -0.388 OA
HETATM   87  H   UNL     1       5.383   9.410  15.142  1.00  0.00     0.210 HD
ENDBRANCH  59  86
BRANCH  60  88
HETATM   88  O   UNL     1       2.099  10.500  16.143  1.00  0.00    -0.390 OA
HETATM   89  H   UNL     1       2.683  10.201  16.886  1.00  0.00     0.210 HD
ENDBRANCH  60  88
ENDBRANCH  54  55
ENDBRANCH   5  54
TORSDOF 41
ENDMDL
