MODEL 1
REMARK VINA RESULT:      -8.0      0.000      0.000
REMARK WARNING: 32 MAX_TORS EXCEEDED!!!
REMARK  36 active torsions:
REMARK  status: ('A' for Active; 'I' for Inactive)
REMARK    1  A    between atoms: C_1  and  O_66 
REMARK    2  A    between atoms: C_2  and  O_47 
REMARK    3  A    between atoms: C_4  and  O_40 
REMARK    4  A    between atoms: C_5  and  O_15 
REMARK    5  A    between atoms: C_7  and  C_17 
REMARK    6  A    between atoms: C_8  and  O_9 
REMARK    7  A    between atoms: C_11  and  N_12 
REMARK    8  A    between atoms: N_12  and  C_20 
REMARK    9  A    between atoms: C_14  and  O_15 
REMARK   10  A    between atoms: C_17  and  O_18 
REMARK   11  A    between atoms: C_20  and  O_21 
REMARK   12  A    between atoms: C_20  and  C_23 
REMARK   13  A    between atoms: C_23  and  N_24 
REMARK   14  A    between atoms: C_27  and  C_28 
REMARK   15  A    between atoms: C_28  and  O_29 
REMARK   16  A    between atoms: C_32  and  O_40 
REMARK   17  A    between atoms: C_33  and  N_34 
REMARK   18  A    between atoms: C_37  and  O_38 
REMARK   19  A    between atoms: C_41  and  C_42 
REMARK   20  A    between atoms: C_42  and  O_43 
REMARK   21  A    between atoms: C_46  and  O_47 
REMARK   22  A    between atoms: C_48  and  N_49 
REMARK       I    between atoms: N_49  and  C_51 
REMARK   23  A    between atoms: C_51  and  C_52 
REMARK   24  A    between atoms: C_52  and  N_54 
REMARK   25  A    between atoms: C_56  and  O_57 
REMARK   26  A    between atoms: C_59  and  O_60 
REMARK   27  A    between atoms: C_62  and  N_63 
REMARK   28  A    between atoms: C_65  and  O_66 
REMARK   29  A    between atoms: C_68  and  C_69 
REMARK   30  A    between atoms: C_69  and  O_70 
REMARK   31  A    between atoms: C_73  and  C_74 
REMARK   32  A    between atoms: C_74  and  O_75 
REMARK   33  A    between atoms: C_79  and  O_80 
REMARK   34  A    between atoms: C_82  and  N_83 
REMARK       I    between atoms: N_83  and  C_85 
REMARK   35  A    between atoms: C_85  and  C_87 
REMARK   36  A    between atoms: C_87  and  N_88 
ROOT
HETATM    1  C   UNL     1       0.576   7.333   9.462  1.00  0.00     0.186 C 
HETATM    2  C   UNL     1       0.946   8.514  10.396  1.00  0.00     0.179 C 
HETATM    3  O   UNL     1       0.455   8.272  11.726  1.00  0.00    -0.349 OA
HETATM    4  C   UNL     1       1.138   7.143  12.306  1.00  0.00     0.297 C 
HETATM    5  C   UNL     1       0.876   5.850  11.490  1.00  0.00     0.309 C 
HETATM    6  C   UNL     1       1.297   6.083  10.019  1.00  0.00     0.188 C 
ENDROOT
BRANCH   1   7
HETATM    7  O   UNL     1      -0.847   7.100   9.442  1.00  0.00    -0.348 OA
BRANCH   7   8
HETATM    8  C   UNL     1      -1.339   6.947   8.100  1.00  0.00     0.296 C 
HETATM    9  O   UNL     1      -1.366   5.540   7.818  1.00  0.00    -0.349 OA
HETATM   10  C   UNL     1      -2.180   5.298   6.653  1.00  0.00     0.179 C 
HETATM   11  C   UNL     1      -1.907   6.328   5.513  1.00  0.00     0.186 C 
HETATM   12  C   UNL     1      -0.497   6.954   5.685  1.00  0.00     0.187 C 
HETATM   13  C   UNL     1      -0.408   7.644   7.072  1.00  0.00     0.303 C 
BRANCH  10  14
HETATM   14  C   UNL     1      -1.940   3.832   6.217  1.00  0.00     0.198 C 
BRANCH  14  15
HETATM   15  O   UNL     1      -0.538   3.605   6.026  1.00  0.00    -0.398 OA
HETATM   16  H   UNL     1      -0.121   4.482   6.156  1.00  0.00     0.209 HD
ENDBRANCH  14  15
ENDBRANCH  10  14
BRANCH  11  17
HETATM   17  O   UNL     1      -2.078   5.711   4.220  1.00  0.00    -0.348 OA
BRANCH  17  18
HETATM   18  C   UNL     1      -1.549   6.522   3.154  1.00  0.00     0.296 C 
HETATM   19  C   UNL     1      -0.784   5.629   2.144  1.00  0.00     0.307 C 
HETATM   20  C   UNL     1      -1.767   4.691   1.401  1.00  0.00     0.163 C 
HETATM   21  C   UNL     1      -2.907   5.508   0.865  1.00  0.00     0.057 C 
HETATM   22  C   UNL     1      -3.527   6.575   1.729  1.00  0.00     0.155 C 
HETATM   23  O   UNL     1      -2.549   7.324   2.483  1.00  0.00    -0.351 OA
BRANCH  19  24
HETATM   24  N   UNL     1      -0.075   6.501   1.173  1.00  0.00     0.125 N 
HETATM   25  H   UNL     1      -0.073   7.452   1.549  1.00  0.00     0.320 HD
BRANCH  24  26
HETATM   26  C   UNL     1       1.345   6.110   1.007  1.00  0.00     0.369 C 
BRANCH  26  27
HETATM   27  O   UNL     1       1.467   5.147  -0.050  1.00  0.00    -0.367 OA
HETATM   28  H   UNL     1       1.866   5.637  -0.800  1.00  0.00     0.212 HD
ENDBRANCH  26  27
BRANCH  26  29
HETATM   29  C   UNL     1       1.848   5.546   2.357  1.00  0.00     0.171 C 
BRANCH  29  30
HETATM   30  N   UNL     1       3.256   5.928   2.622  1.00  0.00    -0.228 NA
HETATM   31  C   UNL     1       4.119   4.739   2.456  1.00  0.00     0.130 C 
HETATM   32 CL   UNL     1       3.760   7.060   1.462  1.00  0.00    -0.022 Cl
ENDBRANCH  29  30
ENDBRANCH  26  29
ENDBRANCH  24  26
ENDBRANCH  19  24
BRANCH  20  33
HETATM   33  O   UNL     1      -2.251   3.657   2.268  1.00  0.00    -0.393 OA
HETATM   34  H   UNL     1      -1.500   3.450   2.864  1.00  0.00     0.210 HD
ENDBRANCH  20  33
BRANCH  22  35
HETATM   35  C   UNL     1      -4.642   5.984   2.627  1.00  0.00     0.196 C 
BRANCH  35  36
HETATM   36  O   UNL     1      -5.566   5.219   1.845  1.00  0.00    -0.398 OA
HETATM   37  H   UNL     1      -5.550   5.626   0.953  1.00  0.00     0.209 HD
ENDBRANCH  35  36
ENDBRANCH  22  35
ENDBRANCH  17  18
ENDBRANCH  11  17
BRANCH  12  38
HETATM   38  O   UNL     1       0.528   5.955   5.581  1.00  0.00    -0.391 OA
HETATM   39  H   UNL     1       1.055   6.200   4.792  1.00  0.00     0.210 HD
ENDBRANCH  12  38
BRANCH  13  40
HETATM   40  N   UNL     1      -0.771   9.071   6.955  1.00  0.00     0.090 N 
HETATM   41  H   UNL     1      -1.774   9.119   6.764  1.00  0.00     0.313 HD
HETATM   42  H   UNL     1      -0.619   9.507   7.867  1.00  0.00     0.313 HD
ENDBRANCH  13  40
ENDBRANCH   7   8
ENDBRANCH   1   7
BRANCH   2  43
HETATM   43  C   UNL     1       0.431   9.883   9.881  1.00  0.00     0.198 C 
BRANCH  43  44
HETATM   44  O   UNL     1      -1.001   9.968   9.840  1.00  0.00    -0.398 OA
HETATM   45  H   UNL     1      -1.294  10.039  10.769  1.00  0.00     0.209 HD
ENDBRANCH  43  44
ENDBRANCH   2  43
BRANCH   6  46
HETATM   46  O   UNL     1       1.034   4.929   9.206  1.00  0.00    -0.391 OA
HETATM   47  H   UNL     1       1.895   4.675   8.811  1.00  0.00     0.210 HD
ENDBRANCH   6  46
BRANCH   5  48
HETATM   48  N   UNL     1       1.664   4.714  12.034  1.00  0.00     0.128 N 
HETATM   49  H   UNL     1       2.179   5.027  12.860  1.00  0.00     0.320 HD
HETATM   50  C   UNL     1       0.773   3.618  12.471  1.00  0.00     0.407 C 
HETATM   51  O   UNL     1       0.040   4.005  13.639  1.00  0.00    -0.201 OA
BRANCH  50  52
HETATM   52  C   UNL     1       1.627   2.372  12.796  1.00  0.00     0.175 C 
BRANCH  52  53
HETATM   53  N   UNL     1       0.945   1.133  12.354  1.00  0.00    -0.228 NA
HETATM   54 CL   UNL     1       1.920  -0.204  12.727  1.00  0.00    -0.022 Cl
HETATM   55  C   UNL     1      -0.314   0.987  13.116  1.00  0.00     0.130 C 
ENDBRANCH  52  53
ENDBRANCH  50  52
ENDBRANCH   5  48
BRANCH   4  56
HETATM   56  O   UNL     1       0.625   6.957  13.636  1.00  0.00    -0.348 OA
BRANCH  56  57
HETATM   57  C   UNL     1       1.513   7.542  14.608  1.00  0.00     0.186 C 
HETATM   58  C   UNL     1       2.953   7.142  14.209  1.00  0.00     0.187 C 
HETATM   59  C   UNL     1       3.964   8.018  14.988  1.00  0.00     0.303 C 
HETATM   60  C   UNL     1       3.749   9.505  14.581  1.00  0.00     0.296 C 
HETATM   61  O   UNL     1       2.461   9.743  13.962  1.00  0.00    -0.349 OA
HETATM   62  C   UNL     1       1.351   9.088  14.613  1.00  0.00     0.179 C 
BRANCH  58  63
HETATM   63  O   UNL     1       3.173   5.740  14.419  1.00  0.00    -0.391 OA
HETATM   64  H   UNL     1       3.664   5.661  15.263  1.00  0.00     0.210 HD
ENDBRANCH  58  63
BRANCH  59  65
HETATM   65  N   UNL     1       3.845   7.811  16.449  1.00  0.00     0.090 N 
HETATM   66  H   UNL     1       3.518   8.691  16.855  1.00  0.00     0.313 HD
HETATM   67  H   UNL     1       4.785   7.671  16.820  1.00  0.00     0.313 HD
ENDBRANCH  59  65
BRANCH  60  68
HETATM   68  O   UNL     1       3.945  10.385  15.706  1.00  0.00    -0.348 OA
BRANCH  68  69
HETATM   69  C   UNL     1       4.008  11.806  15.436  1.00  0.00     0.186 C 
HETATM   70  C   UNL     1       4.252  12.645  16.720  1.00  0.00     0.176 C 
HETATM   71  O   UNL     1       4.038  14.046  16.447  1.00  0.00    -0.379 OA
HETATM   72  C   UNL     1       4.875  14.533  15.381  1.00  0.00     0.206 C 
HETATM   73  C   UNL     1       4.581  13.802  14.046  1.00  0.00     0.278 C 
HETATM   74  C   UNL     1       4.862  12.289  14.231  1.00  0.00     0.185 C 
BRANCH  70  75
HETATM   75  C   UNL     1       5.605  12.399  17.434  1.00  0.00     0.198 C 
BRANCH  75  76
HETATM   76  O   UNL     1       6.002  11.036  17.247  1.00  0.00    -0.398 OA
HETATM   77  H   UNL     1       6.701  11.069  16.562  1.00  0.00     0.209 HD
ENDBRANCH  75  76
ENDBRANCH  70  75
BRANCH  73  78
HETATM   78  N   UNL     1       5.400  14.314  12.919  1.00  0.00     0.126 N 
HETATM   79  H   UNL     1       4.744  14.795  12.298  1.00  0.00     0.320 HD
HETATM   80  C   UNL     1       6.393  15.323  13.358  1.00  0.00     0.407 C 
HETATM   81  O   UNL     1       7.615  14.672  13.722  1.00  0.00    -0.201 OA
BRANCH  80  82
HETATM   82  C   UNL     1       6.685  16.294  12.190  1.00  0.00     0.175 C 
BRANCH  82  83
HETATM   83  N   UNL     1       6.335  17.689  12.545  1.00  0.00    -0.228 NA
HETATM   84  C   UNL     1       5.895  18.389  11.320  1.00  0.00     0.130 C 
HETATM   85 CL   UNL     1       5.024  17.679  13.621  1.00  0.00    -0.022 Cl
ENDBRANCH  82  83
ENDBRANCH  80  82
ENDBRANCH  73  78
BRANCH  74  86
HETATM   86  O   UNL     1       6.273  12.084  14.400  1.00  0.00    -0.391 OA
HETATM   87  H   UNL     1       6.552  11.515  13.653  1.00  0.00     0.210 HD
ENDBRANCH  74  86
ENDBRANCH  68  69
ENDBRANCH  60  68
BRANCH  62  88
HETATM   88  C   UNL     1       1.099   9.643  16.038  1.00  0.00     0.198 C 
BRANCH  88  89
HETATM   89  O   UNL     1       1.001   8.570  16.978  1.00  0.00    -0.398 OA
HETATM   90  H   UNL     1       0.141   8.141  16.783  1.00  0.00     0.209 HD
ENDBRANCH  88  89
ENDBRANCH  62  88
ENDBRANCH  56  57
ENDBRANCH   4  56
TORSDOF 36
ENDMDL
MODEL 2
REMARK VINA RESULT:      -7.8      4.539     12.428
REMARK WARNING: 32 MAX_TORS EXCEEDED!!!
REMARK  36 active torsions:
REMARK  status: ('A' for Active; 'I' for Inactive)
REMARK    1  A    between atoms: C_1  and  O_66 
REMARK    2  A    between atoms: C_2  and  O_47 
REMARK    3  A    between atoms: C_4  and  O_40 
REMARK    4  A    between atoms: C_5  and  O_15 
REMARK    5  A    between atoms: C_7  and  C_17 
REMARK    6  A    between atoms: C_8  and  O_9 
REMARK    7  A    between atoms: C_11  and  N_12 
REMARK    8  A    between atoms: N_12  and  C_20 
REMARK    9  A    between atoms: C_14  and  O_15 
REMARK   10  A    between atoms: C_17  and  O_18 
REMARK   11  A    between atoms: C_20  and  O_21 
REMARK   12  A    between atoms: C_20  and  C_23 
REMARK   13  A    between atoms: C_23  and  N_24 
REMARK   14  A    between atoms: C_27  and  C_28 
REMARK   15  A    between atoms: C_28  and  O_29 
REMARK   16  A    between atoms: C_32  and  O_40 
REMARK   17  A    between atoms: C_33  and  N_34 
REMARK   18  A    between atoms: C_37  and  O_38 
REMARK   19  A    between atoms: C_41  and  C_42 
REMARK   20  A    between atoms: C_42  and  O_43 
REMARK   21  A    between atoms: C_46  and  O_47 
REMARK   22  A    between atoms: C_48  and  N_49 
REMARK       I    between atoms: N_49  and  C_51 
REMARK   23  A    between atoms: C_51  and  C_52 
REMARK   24  A    between atoms: C_52  and  N_54 
REMARK   25  A    between atoms: C_56  and  O_57 
REMARK   26  A    between atoms: C_59  and  O_60 
REMARK   27  A    between atoms: C_62  and  N_63 
REMARK   28  A    between atoms: C_65  and  O_66 
REMARK   29  A    between atoms: C_68  and  C_69 
REMARK   30  A    between atoms: C_69  and  O_70 
REMARK   31  A    between atoms: C_73  and  C_74 
REMARK   32  A    between atoms: C_74  and  O_75 
REMARK   33  A    between atoms: C_79  and  O_80 
REMARK   34  A    between atoms: C_82  and  N_83 
REMARK       I    between atoms: N_83  and  C_85 
REMARK   35  A    between atoms: C_85  and  C_87 
REMARK   36  A    between atoms: C_87  and  N_88 
ROOT
HETATM    1  C   UNL     1       1.552   5.002  14.131  1.00  0.00     0.186 C 
HETATM    2  C   UNL     1       2.643   5.057  13.030  1.00  0.00     0.179 C 
HETATM    3  O   UNL     1       2.179   5.823  11.905  1.00  0.00    -0.349 OA
HETATM    4  C   UNL     1       1.999   7.201  12.287  1.00  0.00     0.297 C 
HETATM    5  C   UNL     1       0.924   7.340  13.396  1.00  0.00     0.309 C 
HETATM    6  C   UNL     1       1.322   6.456  14.603  1.00  0.00     0.188 C 
ENDROOT
BRANCH   1   7
HETATM    7  O   UNL     1       0.316   4.459  13.623  1.00  0.00    -0.348 OA
BRANCH   7   8
HETATM    8  C   UNL     1       0.066   3.139  14.138  1.00  0.00     0.296 C 
HETATM    9  O   UNL     1      -0.340   2.324  13.030  1.00  0.00    -0.349 OA
HETATM   10  C   UNL     1      -0.249   0.933  13.398  1.00  0.00     0.179 C 
HETATM   11  C   UNL     1      -0.808   0.658  14.828  1.00  0.00     0.186 C 
HETATM   12  C   UNL     1      -1.799   1.780  15.238  1.00  0.00     0.187 C 
HETATM   13  C   UNL     1      -1.072   3.150  15.194  1.00  0.00     0.303 C 
BRANCH  10  14
HETATM   14  C   UNL     1      -0.969   0.115  12.297  1.00  0.00     0.198 C 
BRANCH  14  15
HETATM   15  O   UNL     1      -0.144  -0.983  11.889  1.00  0.00    -0.398 OA
HETATM   16  H   UNL     1       0.270  -1.307  12.716  1.00  0.00     0.209 HD
ENDBRANCH  14  15
ENDBRANCH  10  14
BRANCH  11  17
HETATM   17  O   UNL     1      -1.406  -0.653  14.896  1.00  0.00    -0.348 OA
BRANCH  17  18
HETATM   18  C   UNL     1      -0.430  -1.687  15.122  1.00  0.00     0.296 C 
HETATM   19  C   UNL     1      -0.482  -2.142  16.604  1.00  0.00     0.307 C 
HETATM   20  C   UNL     1      -1.818  -2.868  16.898  1.00  0.00     0.163 C 
HETATM   21  C   UNL     1      -2.041  -3.920  15.851  1.00  0.00     0.057 C 
HETATM   22  C   UNL     1      -1.760  -3.600  14.406  1.00  0.00     0.155 C 
HETATM   23  O   UNL     1      -0.560  -2.816  14.228  1.00  0.00    -0.351 OA
BRANCH  19  24
HETATM   24  N   UNL     1       0.663  -3.052  16.867  1.00  0.00     0.125 N 
HETATM   25  H   UNL     1       0.586  -3.845  16.225  1.00  0.00     0.320 HD
BRANCH  24  26
HETATM   26  C   UNL     1       1.966  -2.405  16.581  1.00  0.00     0.369 C 
BRANCH  26  27
HETATM   27  O   UNL     1       2.961  -3.405  16.323  1.00  0.00    -0.367 OA
HETATM   28  H   UNL     1       3.577  -3.359  17.085  1.00  0.00     0.212 HD
ENDBRANCH  26  27
BRANCH  26  29
HETATM   29  C   UNL     1       2.340  -1.524  17.797  1.00  0.00     0.171 C 
BRANCH  29  30
HETATM   30  N   UNL     1       2.663  -0.134  17.391  1.00  0.00    -0.228 NA
HETATM   31  C   UNL     1       2.793  -0.079  15.919  1.00  0.00     0.130 C 
HETATM   32 CL   UNL     1       1.371   0.886  17.804  1.00  0.00    -0.022 Cl
ENDBRANCH  29  30
ENDBRANCH  26  29
ENDBRANCH  24  26
ENDBRANCH  19  24
BRANCH  20  33
HETATM   33  O   UNL     1      -2.913  -1.943  16.927  1.00  0.00    -0.393 OA
HETATM   34  H   UNL     1      -2.827  -1.471  17.782  1.00  0.00     0.210 HD
ENDBRANCH  20  33
BRANCH  22  35
HETATM   35  C   UNL     1      -2.995  -2.956  13.728  1.00  0.00     0.196 C 
BRANCH  35  36
HETATM   36  O   UNL     1      -4.191  -3.282  14.446  1.00  0.00    -0.398 OA
HETATM   37  H   UNL     1      -4.146  -2.761  15.275  1.00  0.00     0.209 HD
ENDBRANCH  35  36
ENDBRANCH  22  35
ENDBRANCH  17  18
ENDBRANCH  11  17
BRANCH  12  38
HETATM   38  O   UNL     1      -2.934   1.813  14.361  1.00  0.00    -0.391 OA
HETATM   39  H   UNL     1      -3.522   2.510  14.718  1.00  0.00     0.210 HD
ENDBRANCH  12  38
BRANCH  13  40
HETATM   40  N   UNL     1      -0.517   3.475  16.524  1.00  0.00     0.090 N 
HETATM   41  H   UNL     1      -1.301   3.699  17.139  1.00  0.00     0.313 HD
HETATM   42  H   UNL     1      -0.077   2.629  16.894  1.00  0.00     0.313 HD
ENDBRANCH  13  40
ENDBRANCH   7   8
ENDBRANCH   1   7
BRANCH   2  43
HETATM   43  C   UNL     1       3.109   3.654  12.562  1.00  0.00     0.198 C 
BRANCH  43  44
HETATM   44  O   UNL     1       2.222   3.056  11.604  1.00  0.00    -0.398 OA
HETATM   45  H   UNL     1       2.746   2.936  10.789  1.00  0.00     0.209 HD
ENDBRANCH  43  44
ENDBRANCH   2  43
BRANCH   6  46
HETATM   46  O   UNL     1       0.336   6.512  15.645  1.00  0.00    -0.391 OA
HETATM   47  H   UNL     1       0.759   6.983  16.394  1.00  0.00     0.210 HD
ENDBRANCH   6  46
BRANCH   5  48
HETATM   48  N   UNL     1       0.818   8.749  13.855  1.00  0.00     0.128 N 
HETATM   49  H   UNL     1       1.335   9.353  13.212  1.00  0.00     0.320 HD
HETATM   50  C   UNL     1      -0.589   9.203  13.838  1.00  0.00     0.407 C 
HETATM   51  O   UNL     1      -1.054   9.337  12.490  1.00  0.00    -0.201 OA
BRANCH  50  52
HETATM   52  C   UNL     1      -0.687  10.572  14.548  1.00  0.00     0.175 C 
BRANCH  52  53
HETATM   53  N   UNL     1      -1.316  10.434  15.882  1.00  0.00    -0.228 NA
HETATM   54 CL   UNL     1      -2.225  11.825  16.218  1.00  0.00    -0.022 Cl
HETATM   55  C   UNL     1      -2.254   9.291  15.846  1.00  0.00     0.130 C 
ENDBRANCH  52  53
ENDBRANCH  50  52
ENDBRANCH   5  48
BRANCH   4  56
HETATM   56  O   UNL     1       1.555   7.923  11.126  1.00  0.00    -0.348 OA
BRANCH  56  57
HETATM   57  C   UNL     1       1.184   7.012  10.073  1.00  0.00     0.186 C 
HETATM   58  C   UNL     1      -0.256   7.374   9.642  1.00  0.00     0.187 C 
HETATM   59  C   UNL     1      -0.578   6.683   8.295  1.00  0.00     0.303 C 
HETATM   60  C   UNL     1       0.398   7.227   7.212  1.00  0.00     0.296 C 
HETATM   61  O   UNL     1       1.571   7.863   7.774  1.00  0.00    -0.349 OA
HETATM   62  C   UNL     1       2.170   7.151   8.879  1.00  0.00     0.179 C 
BRANCH  58  63
HETATM   63  O   UNL     1      -1.199   7.033  10.668  1.00  0.00    -0.391 OA
HETATM   64  H   UNL     1      -1.911   6.523  10.229  1.00  0.00     0.210 HD
ENDBRANCH  58  63
BRANCH  59  65
HETATM   65  N   UNL     1      -0.519   5.208   8.417  1.00  0.00     0.090 N 
HETATM   66  H   UNL     1      -1.144   4.819   7.708  1.00  0.00     0.313 HD
HETATM   67  H   UNL     1      -0.930   4.954   9.315  1.00  0.00     0.313 HD
ENDBRANCH  59  65
BRANCH  60  68
HETATM   68  O   UNL     1       0.775   6.190   6.284  1.00  0.00    -0.348 OA
BRANCH  68  69
HETATM   69  C   UNL     1       0.376   6.355   4.902  1.00  0.00     0.186 C 
HETATM   70  C   UNL     1       0.694   5.105   4.037  1.00  0.00     0.176 C 
HETATM   71  O   UNL     1       0.530   5.415   2.637  1.00  0.00    -0.379 OA
HETATM   72  C   UNL     1      -0.792   5.897   2.330  1.00  0.00     0.206 C 
HETATM   73  C   UNL     1      -1.109   7.213   3.084  1.00  0.00     0.278 C 
HETATM   74  C   UNL     1      -1.031   6.947   4.609  1.00  0.00     0.185 C 
BRANCH  70  75
HETATM   75  C   UNL     1      -0.060   3.809   4.430  1.00  0.00     0.198 C 
BRANCH  75  76
HETATM   76  O   UNL     1      -0.251   3.781   5.849  1.00  0.00    -0.398 OA
HETATM   77  H   UNL     1       0.652   3.718   6.224  1.00  0.00     0.209 HD
ENDBRANCH  75  76
ENDBRANCH  70  75
BRANCH  73  78
HETATM   78  N   UNL     1      -2.451   7.755   2.753  1.00  0.00     0.126 N 
HETATM   79  H   UNL     1      -2.279   8.629   2.251  1.00  0.00     0.320 HD
HETATM   80  C   UNL     1      -3.203   6.871   1.831  1.00  0.00     0.407 C 
HETATM   81  O   UNL     1      -3.964   5.921   2.584  1.00  0.00    -0.201 OA
BRANCH  80  82
HETATM   82  C   UNL     1      -4.181   7.724   0.989  1.00  0.00     0.175 C 
BRANCH  82  83
HETATM   83  N   UNL     1      -4.275   7.225  -0.403  1.00  0.00    -0.228 NA
HETATM   84  C   UNL     1      -2.941   6.742  -0.819  1.00  0.00     0.130 C 
HETATM   85 CL   UNL     1      -5.332   5.900  -0.450  1.00  0.00    -0.022 Cl
ENDBRANCH  82  83
ENDBRANCH  80  82
ENDBRANCH  73  78
BRANCH  74  86
HETATM   86  O   UNL     1      -2.115   6.090   4.999  1.00  0.00    -0.391 OA
HETATM   87  H   UNL     1      -2.077   5.319   4.395  1.00  0.00     0.210 HD
ENDBRANCH  74  86
ENDBRANCH  68  69
ENDBRANCH  60  68
BRANCH  62  88
HETATM   88  C   UNL     1       2.757   5.785   8.445  1.00  0.00     0.198 C 
BRANCH  88  89
HETATM   89  O   UNL     1       2.317   4.752   9.331  1.00  0.00    -0.398 OA
HETATM   90  H   UNL     1       2.388   5.143  10.228  1.00  0.00     0.209 HD
ENDBRANCH  88  89
ENDBRANCH  62  88
ENDBRANCH  56  57
ENDBRANCH   4  56
TORSDOF 36
ENDMDL
MODEL 3
REMARK VINA RESULT:      -7.7      4.614     12.223
REMARK WARNING: 32 MAX_TORS EXCEEDED!!!
REMARK  36 active torsions:
REMARK  status: ('A' for Active; 'I' for Inactive)
REMARK    1  A    between atoms: C_1  and  O_66 
REMARK    2  A    between atoms: C_2  and  O_47 
REMARK    3  A    between atoms: C_4  and  O_40 
REMARK    4  A    between atoms: C_5  and  O_15 
REMARK    5  A    between atoms: C_7  and  C_17 
REMARK    6  A    between atoms: C_8  and  O_9 
REMARK    7  A    between atoms: C_11  and  N_12 
REMARK    8  A    between atoms: N_12  and  C_20 
REMARK    9  A    between atoms: C_14  and  O_15 
REMARK   10  A    between atoms: C_17  and  O_18 
REMARK   11  A    between atoms: C_20  and  O_21 
REMARK   12  A    between atoms: C_20  and  C_23 
REMARK   13  A    between atoms: C_23  and  N_24 
REMARK   14  A    between atoms: C_27  and  C_28 
REMARK   15  A    between atoms: C_28  and  O_29 
REMARK   16  A    between atoms: C_32  and  O_40 
REMARK   17  A    between atoms: C_33  and  N_34 
REMARK   18  A    between atoms: C_37  and  O_38 
REMARK   19  A    between atoms: C_41  and  C_42 
REMARK   20  A    between atoms: C_42  and  O_43 
REMARK   21  A    between atoms: C_46  and  O_47 
REMARK   22  A    between atoms: C_48  and  N_49 
REMARK       I    between atoms: N_49  and  C_51 
REMARK   23  A    between atoms: C_51  and  C_52 
REMARK   24  A    between atoms: C_52  and  N_54 
REMARK   25  A    between atoms: C_56  and  O_57 
REMARK   26  A    between atoms: C_59  and  O_60 
REMARK   27  A    between atoms: C_62  and  N_63 
REMARK   28  A    between atoms: C_65  and  O_66 
REMARK   29  A    between atoms: C_68  and  C_69 
REMARK   30  A    between atoms: C_69  and  O_70 
REMARK   31  A    between atoms: C_73  and  C_74 
REMARK   32  A    between atoms: C_74  and  O_75 
REMARK   33  A    between atoms: C_79  and  O_80 
REMARK   34  A    between atoms: C_82  and  N_83 
REMARK       I    between atoms: N_83  and  C_85 
REMARK   35  A    between atoms: C_85  and  C_87 
REMARK   36  A    between atoms: C_87  and  N_88 
ROOT
HETATM    1  C   UNL     1       2.128   5.377  14.120  1.00  0.00     0.186 C 
HETATM    2  C   UNL     1       3.401   5.923  13.422  1.00  0.00     0.179 C 
HETATM    3  O   UNL     1       3.046   6.650  12.233  1.00  0.00    -0.349 OA
HETATM    4  C   UNL     1       2.305   7.836  12.584  1.00  0.00     0.297 C 
HETATM    5  C   UNL     1       0.978   7.477  13.301  1.00  0.00     0.309 C 
HETATM    6  C   UNL     1       1.290   6.607  14.542  1.00  0.00     0.188 C 
ENDROOT
BRANCH   1   7
HETATM    7  O   UNL     1       1.352   4.548  13.231  1.00  0.00    -0.348 OA
BRANCH   7   8
HETATM    8  C   UNL     1       0.948   3.324  13.868  1.00  0.00     0.296 C 
HETATM    9  O   UNL     1       1.692   2.263  13.253  1.00  0.00    -0.349 OA
HETATM   10  C   UNL     1       1.615   1.081  14.076  1.00  0.00     0.179 C 
HETATM   11  C   UNL     1       0.173   0.825  14.615  1.00  0.00     0.186 C 
HETATM   12  C   UNL     1      -0.869   1.532  13.707  1.00  0.00     0.187 C 
HETATM   13  C   UNL     1      -0.567   3.053  13.666  1.00  0.00     0.303 C 
BRANCH  10  14
HETATM   14  C   UNL     1       2.169  -0.100  13.242  1.00  0.00     0.198 C 
BRANCH  14  15
HETATM   15  O   UNL     1       1.162  -0.573  12.339  1.00  0.00    -0.398 OA
HETATM   16  H   UNL     1       1.028   0.162  11.705  1.00  0.00     0.209 HD
ENDBRANCH  14  15
ENDBRANCH  10  14
BRANCH  11  17
HETATM   17  O   UNL     1      -0.079  -0.589  14.740  1.00  0.00    -0.348 OA
BRANCH  17  18
HETATM   18  C   UNL     1      -0.901  -0.898  15.882  1.00  0.00     0.296 C 
HETATM   19  C   UNL     1      -2.396  -0.875  15.473  1.00  0.00     0.307 C 
HETATM   20  C   UNL     1      -2.708  -2.044  14.505  1.00  0.00     0.163 C 
HETATM   21  C   UNL     1      -2.179  -3.319  15.095  1.00  0.00     0.057 C 
HETATM   22  C   UNL     1      -0.817  -3.330  15.737  1.00  0.00     0.155 C 
HETATM   23  O   UNL     1      -0.558  -2.147  16.524  1.00  0.00    -0.351 OA
BRANCH  19  24
HETATM   24  N   UNL     1      -3.231  -0.989  16.696  1.00  0.00     0.125 N 
HETATM   25  H   UNL     1      -2.627  -0.818  17.504  1.00  0.00     0.320 HD
BRANCH  24  26
HETATM   26  C   UNL     1      -4.296   0.041  16.742  1.00  0.00     0.369 C 
BRANCH  26  27
HETATM   27  O   UNL     1      -5.543  -0.528  16.317  1.00  0.00    -0.367 OA
HETATM   28  H   UNL     1      -6.189  -0.282  17.012  1.00  0.00     0.212 HD
ENDBRANCH  26  27
BRANCH  26  29
HETATM   29  C   UNL     1      -3.864   1.218  15.834  1.00  0.00     0.171 C 
BRANCH  29  30
HETATM   30  N   UNL     1      -3.589   2.445  16.620  1.00  0.00    -0.228 NA
HETATM   31  C   UNL     1      -4.737   2.716  17.512  1.00  0.00     0.130 C 
HETATM   32 CL   UNL     1      -2.246   2.182  17.623  1.00  0.00    -0.022 Cl
ENDBRANCH  29  30
ENDBRANCH  26  29
ENDBRANCH  24  26
ENDBRANCH  19  24
BRANCH  20  33
HETATM   33  O   UNL     1      -2.136  -1.810  13.211  1.00  0.00    -0.393 OA
HETATM   34  H   UNL     1      -1.166  -1.857  13.347  1.00  0.00     0.210 HD
ENDBRANCH  20  33
BRANCH  22  35
HETATM   35  C   UNL     1       0.291  -3.597  14.688  1.00  0.00     0.196 C 
BRANCH  35  36
HETATM   36  O   UNL     1      -0.033  -4.745  13.895  1.00  0.00    -0.398 OA
HETATM   37  H   UNL     1      -0.991  -4.899  14.040  1.00  0.00     0.209 HD
ENDBRANCH  35  36
ENDBRANCH  22  35
ENDBRANCH  17  18
ENDBRANCH  11  17
BRANCH  12  38
HETATM   38  O   UNL     1      -0.837   1.001  12.374  1.00  0.00    -0.391 OA
HETATM   39  H   UNL     1      -1.028   0.044  12.469  1.00  0.00     0.210 HD
ENDBRANCH  12  38
BRANCH  13  40
HETATM   40  N   UNL     1      -1.344   3.755  14.707  1.00  0.00     0.090 N 
HETATM   41  H   UNL     1      -0.678   4.187  15.351  1.00  0.00     0.313 HD
HETATM   42  H   UNL     1      -1.859   4.513  14.254  1.00  0.00     0.313 HD
ENDBRANCH  13  40
ENDBRANCH   7   8
ENDBRANCH   1   7
BRANCH   2  43
HETATM   43  C   UNL     1       4.431   4.817  13.080  1.00  0.00     0.198 C 
BRANCH  43  44
HETATM   44  O   UNL     1       4.137   3.559  13.708  1.00  0.00    -0.398 OA
HETATM   45  H   UNL     1       4.892   2.973  13.506  1.00  0.00     0.209 HD
ENDBRANCH  43  44
ENDBRANCH   2  43
BRANCH   6  46
HETATM   46  O   UNL     1       0.091   6.207  15.222  1.00  0.00    -0.391 OA
HETATM   47  H   UNL     1       0.371   5.909  16.113  1.00  0.00     0.210 HD
ENDBRANCH   6  46
BRANCH   5  48
HETATM   48  N   UNL     1       0.270   8.704  13.748  1.00  0.00     0.128 N 
HETATM   49  H   UNL     1       0.312   9.406  13.007  1.00  0.00     0.320 HD
HETATM   50  C   UNL     1      -1.161   8.425  13.998  1.00  0.00     0.407 C 
HETATM   51  O   UNL     1      -1.843   8.170  12.764  1.00  0.00    -0.201 OA
BRANCH  50  52
HETATM   52  C   UNL     1      -1.801   9.649  14.690  1.00  0.00     0.175 C 
BRANCH  52  53
HETATM   53  N   UNL     1      -3.256   9.709  14.419  1.00  0.00    -0.228 NA
HETATM   54 CL   UNL     1      -4.086   8.859  15.628  1.00  0.00    -0.022 Cl
HETATM   55  C   UNL     1      -3.693  11.120  14.491  1.00  0.00     0.130 C 
ENDBRANCH  52  53
ENDBRANCH  50  52
ENDBRANCH   5  48
BRANCH   4  56
HETATM   56  O   UNL     1       1.992   8.533  11.365  1.00  0.00    -0.348 OA
BRANCH  56  57
HETATM   57  C   UNL     1       0.891   7.899  10.686  1.00  0.00     0.186 C 
HETATM   58  C   UNL     1       0.075   9.017   9.997  1.00  0.00     0.187 C 
HETATM   59  C   UNL     1      -0.897   8.387   8.971  1.00  0.00     0.303 C 
HETATM   60  C   UNL     1      -0.060   7.660   7.878  1.00  0.00     0.296 C 
HETATM   61  O   UNL     1       1.300   7.386   8.292  1.00  0.00    -0.349 OA
HETATM   62  C   UNL     1       1.428   6.882   9.640  1.00  0.00     0.179 C 
BRANCH  58  63
HETATM   63  O   UNL     1      -0.606   9.826  10.967  1.00  0.00    -0.391 OA
HETATM   64  H   UNL     1       0.028   9.971  11.699  1.00  0.00     0.210 HD
ENDBRANCH  58  63
BRANCH  59  65
HETATM   65  N   UNL     1      -1.867   7.484   9.630  1.00  0.00     0.090 N 
HETATM   66  H   UNL     1      -1.404   7.088  10.452  1.00  0.00     0.313 HD
HETATM   67  H   UNL     1      -2.032   6.695   9.004  1.00  0.00     0.313 HD
ENDBRANCH  59  65
BRANCH  60  68
HETATM   68  O   UNL     1      -0.714   6.451   7.442  1.00  0.00    -0.348 OA
BRANCH  68  69
HETATM   69  C   UNL     1      -0.563   6.077   6.051  1.00  0.00     0.186 C 
HETATM   70  C   UNL     1      -0.476   4.539   5.855  1.00  0.00     0.176 C 
HETATM   71  O   UNL     1      -0.060   4.232   4.507  1.00  0.00    -0.379 OA
HETATM   72  C   UNL     1      -0.937   4.801   3.516  1.00  0.00     0.206 C 
HETATM   73  C   UNL     1      -0.964   6.349   3.599  1.00  0.00     0.278 C 
HETATM   74  C   UNL     1      -1.478   6.766   5.000  1.00  0.00     0.185 C 
BRANCH  70  75
HETATM   75  C   UNL     1      -1.740   3.739   6.261  1.00  0.00     0.198 C 
BRANCH  75  76
HETATM   76  O   UNL     1      -2.512   4.508   7.190  1.00  0.00    -0.398 OA
HETATM   77  H   UNL     1      -1.931   5.255   7.442  1.00  0.00     0.209 HD
ENDBRANCH  75  76
ENDBRANCH  70  75
BRANCH  73  78
HETATM   78  N   UNL     1      -1.828   6.964   2.561  1.00  0.00     0.126 N 
HETATM   79  H   UNL     1      -1.190   7.424   1.909  1.00  0.00     0.320 HD
HETATM   80  C   UNL     1      -2.580   5.952   1.783  1.00  0.00     0.407 C 
HETATM   81  O   UNL     1      -3.833   5.684   2.420  1.00  0.00    -0.201 OA
BRANCH  80  82
HETATM   82  C   UNL     1      -2.860   6.501   0.365  1.00  0.00     0.175 C 
BRANCH  82  83
HETATM   83  N   UNL     1      -1.605   6.710  -0.394  1.00  0.00    -0.228 NA
HETATM   84  C   UNL     1      -0.739   5.528  -0.203  1.00  0.00     0.130 C 
HETATM   85 CL   UNL     1      -1.963   6.815  -2.048  1.00  0.00    -0.022 Cl
ENDBRANCH  82  83
ENDBRANCH  80  82
ENDBRANCH  73  78
BRANCH  74  86
HETATM   86  O   UNL     1      -2.866   6.419   5.121  1.00  0.00    -0.391 OA
HETATM   87  H   UNL     1      -3.329   7.249   5.360  1.00  0.00     0.210 HD
ENDBRANCH  74  86
ENDBRANCH  68  69
ENDBRANCH  60  68
BRANCH  62  88
HETATM   88  C   UNL     1       0.784   5.482   9.803  1.00  0.00     0.198 C 
BRANCH  88  89
HETATM   89  O   UNL     1      -0.126   5.481  10.907  1.00  0.00    -0.398 OA
HETATM   90  H   UNL     1      -0.742   6.223  10.726  1.00  0.00     0.209 HD
ENDBRANCH  88  89
ENDBRANCH  62  88
ENDBRANCH  56  57
ENDBRANCH   4  56
TORSDOF 36
ENDMDL
MODEL 4
REMARK VINA RESULT:      -7.6      5.271      7.665
REMARK WARNING: 32 MAX_TORS EXCEEDED!!!
REMARK  36 active torsions:
REMARK  status: ('A' for Active; 'I' for Inactive)
REMARK    1  A    between atoms: C_1  and  O_66 
REMARK    2  A    between atoms: C_2  and  O_47 
REMARK    3  A    between atoms: C_4  and  O_40 
REMARK    4  A    between atoms: C_5  and  O_15 
REMARK    5  A    between atoms: C_7  and  C_17 
REMARK    6  A    between atoms: C_8  and  O_9 
REMARK    7  A    between atoms: C_11  and  N_12 
REMARK    8  A    between atoms: N_12  and  C_20 
REMARK    9  A    between atoms: C_14  and  O_15 
REMARK   10  A    between atoms: C_17  and  O_18 
REMARK   11  A    between atoms: C_20  and  O_21 
REMARK   12  A    between atoms: C_20  and  C_23 
REMARK   13  A    between atoms: C_23  and  N_24 
REMARK   14  A    between atoms: C_27  and  C_28 
REMARK   15  A    between atoms: C_28  and  O_29 
REMARK   16  A    between atoms: C_32  and  O_40 
REMARK   17  A    between atoms: C_33  and  N_34 
REMARK   18  A    between atoms: C_37  and  O_38 
REMARK   19  A    between atoms: C_41  and  C_42 
REMARK   20  A    between atoms: C_42  and  O_43 
REMARK   21  A    between atoms: C_46  and  O_47 
REMARK   22  A    between atoms: C_48  and  N_49 
REMARK       I    between atoms: N_49  and  C_51 
REMARK   23  A    between atoms: C_51  and  C_52 
REMARK   24  A    between atoms: C_52  and  N_54 
REMARK   25  A    between atoms: C_56  and  O_57 
REMARK   26  A    between atoms: C_59  and  O_60 
REMARK   27  A    between atoms: C_62  and  N_63 
REMARK   28  A    between atoms: C_65  and  O_66 
REMARK   29  A    between atoms: C_68  and  C_69 
REMARK   30  A    between atoms: C_69  and  O_70 
REMARK   31  A    between atoms: C_73  and  C_74 
REMARK   32  A    between atoms: C_74  and  O_75 
REMARK   33  A    between atoms: C_79  and  O_80 
REMARK   34  A    between atoms: C_82  and  N_83 
REMARK       I    between atoms: N_83  and  C_85 
REMARK   35  A    between atoms: C_85  and  C_87 
REMARK   36  A    between atoms: C_87  and  N_88 
ROOT
HETATM    1  C   UNL     1       1.138   6.601   9.966  1.00  0.00     0.186 C 
HETATM    2  C   UNL     1       0.880   7.932  10.718  1.00  0.00     0.179 C 
HETATM    3  O   UNL     1      -0.167   7.763  11.690  1.00  0.00    -0.349 OA
HETATM    4  C   UNL     1       0.263   6.856  12.724  1.00  0.00     0.297 C 
HETATM    5  C   UNL     1       0.569   5.450  12.146  1.00  0.00     0.309 C 
HETATM    6  C   UNL     1       1.624   5.580  11.022  1.00  0.00     0.188 C 
ENDROOT
BRANCH   1   7
HETATM    7  O   UNL     1      -0.062   6.108   9.337  1.00  0.00    -0.348 OA
BRANCH   7   8
HETATM    8  C   UNL     1       0.123   5.914   7.924  1.00  0.00     0.296 C 
HETATM    9  O   UNL     1       1.527   5.719   7.706  1.00  0.00    -0.349 OA
HETATM   10  C   UNL     1       1.737   5.161   6.392  1.00  0.00     0.179 C 
HETATM   11  C   UNL     1       0.856   5.853   5.305  1.00  0.00     0.186 C 
HETATM   12  C   UNL     1       0.439   7.271   5.779  1.00  0.00     0.187 C 
HETATM   13  C   UNL     1      -0.340   7.157   7.117  1.00  0.00     0.303 C 
BRANCH  10  14
HETATM   14  C   UNL     1       3.253   5.247   6.090  1.00  0.00     0.198 C 
BRANCH  14  15
HETATM   15  O   UNL     1       3.987   4.504   7.071  1.00  0.00    -0.398 OA
HETATM   16  H   UNL     1       3.532   3.637   7.123  1.00  0.00     0.209 HD
ENDBRANCH  14  15
ENDBRANCH  10  14
BRANCH  11  17
HETATM   17  O   UNL     1       1.543   5.879   4.038  1.00  0.00    -0.348 OA
BRANCH  17  18
HETATM   18  C   UNL     1       0.782   5.245   2.992  1.00  0.00     0.296 C 
HETATM   19  C   UNL     1      -0.107   6.296   2.279  1.00  0.00     0.307 C 
HETATM   20  C   UNL     1       0.771   7.304   1.496  1.00  0.00     0.163 C 
HETATM   21  C   UNL     1       1.745   6.541   0.645  1.00  0.00     0.057 C 
HETATM   22  C   UNL     1       2.455   5.344   1.221  1.00  0.00     0.155 C 
HETATM   23  O   UNL     1       1.594   4.522   2.039  1.00  0.00    -0.351 OA
BRANCH  19  24
HETATM   24  N   UNL     1      -1.030   5.594   1.351  1.00  0.00     0.125 N 
HETATM   25  H   UNL     1      -0.463   5.039   0.705  1.00  0.00     0.320 HD
BRANCH  24  26
HETATM   26  C   UNL     1      -1.914   4.639   2.062  1.00  0.00     0.369 C 
BRANCH  26  27
HETATM   27  O   UNL     1      -1.888   3.366   1.402  1.00  0.00    -0.367 OA
HETATM   28  H   UNL     1      -2.429   2.772   1.964  1.00  0.00     0.212 HD
ENDBRANCH  26  27
BRANCH  26  29
HETATM   29  C   UNL     1      -3.341   5.239   2.094  1.00  0.00     0.171 C 
BRANCH  29  30
HETATM   30  N   UNL     1      -3.635   6.021   0.868  1.00  0.00    -0.228 NA
HETATM   31  C   UNL     1      -5.003   5.703   0.409  1.00  0.00     0.130 C 
HETATM   32 CL   UNL     1      -3.620   7.677   1.241  1.00  0.00    -0.022 Cl
ENDBRANCH  29  30
ENDBRANCH  26  29
ENDBRANCH  24  26
ENDBRANCH  19  24
BRANCH  20  33
HETATM   33  O   UNL     1       1.463   8.188   2.387  1.00  0.00    -0.393 OA
HETATM   34  H   UNL     1       1.249   9.091   2.071  1.00  0.00     0.210 HD
ENDBRANCH  20  33
BRANCH  22  35
HETATM   35  C   UNL     1       3.748   5.767   1.960  1.00  0.00     0.196 C 
BRANCH  35  36
HETATM   36  O   UNL     1       4.228   4.700   2.787  1.00  0.00    -0.398 OA
HETATM   37  H   UNL     1       5.193   4.658   2.622  1.00  0.00     0.209 HD
ENDBRANCH  35  36
ENDBRANCH  22  35
ENDBRANCH  17  18
ENDBRANCH  11  17
BRANCH  12  38
HETATM   38  O   UNL     1       1.587   8.112   5.964  1.00  0.00    -0.391 OA
HETATM   39  H   UNL     1       1.379   8.673   6.740  1.00  0.00     0.210 HD
ENDBRANCH  12  38
BRANCH  13  40
HETATM   40  N   UNL     1      -1.791   7.071   6.855  1.00  0.00     0.090 N 
HETATM   41  H   UNL     1      -2.271   7.133   7.755  1.00  0.00     0.313 HD
HETATM   42  H   UNL     1      -2.060   7.895   6.314  1.00  0.00     0.313 HD
ENDBRANCH  13  40
ENDBRANCH   7   8
ENDBRANCH   1   7
BRANCH   2  43
HETATM   43  C   UNL     1       0.541   9.112   9.771  1.00  0.00     0.198 C 
BRANCH  43  44
HETATM   44  O   UNL     1      -0.804   9.591   9.927  1.00  0.00    -0.398 OA
HETATM   45  H   UNL     1      -1.335   9.131   9.248  1.00  0.00     0.209 HD
ENDBRANCH  43  44
ENDBRANCH   2  43
BRANCH   6  46
HETATM   46  O   UNL     1       1.913   4.310  10.419  1.00  0.00    -0.391 OA
HETATM   47  H   UNL     1       2.377   3.784  11.105  1.00  0.00     0.210 HD
ENDBRANCH   6  46
BRANCH   5  48
HETATM   48  N   UNL     1       1.107   4.551  13.200  1.00  0.00     0.128 N 
HETATM   49  H   UNL     1       0.952   4.976  14.117  1.00  0.00     0.320 HD
HETATM   50  C   UNL     1       0.395   3.255  13.199  1.00  0.00     0.407 C 
HETATM   51  O   UNL     1      -0.949   3.422  13.666  1.00  0.00    -0.201 OA
BRANCH  50  52
HETATM   52  C   UNL     1       1.138   2.270  14.130  1.00  0.00     0.175 C 
BRANCH  52  53
HETATM   53  N   UNL     1       1.884   1.260  13.344  1.00  0.00    -0.228 NA
HETATM   54 CL   UNL     1       3.092   0.576  14.318  1.00  0.00    -0.022 Cl
HETATM   55  C   UNL     1       0.955   0.174  12.966  1.00  0.00     0.130 C 
ENDBRANCH  52  53
ENDBRANCH  50  52
ENDBRANCH   5  48
BRANCH   4  56
HETATM   56  O   UNL     1      -0.809   6.737  13.675  1.00  0.00    -0.348 OA
BRANCH  56  57
HETATM   57  C   UNL     1      -1.372   8.031  13.969  1.00  0.00     0.186 C 
HETATM   58  C   UNL     1      -2.883   7.954  13.650  1.00  0.00     0.187 C 
HETATM   59  C   UNL     1      -3.602   9.175  14.272  1.00  0.00     0.303 C 
HETATM   60  C   UNL     1      -3.434   9.116  15.818  1.00  0.00     0.296 C 
HETATM   61  O   UNL     1      -2.353   8.249  16.238  1.00  0.00    -0.349 OA
HETATM   62  C   UNL     1      -1.140   8.383  15.465  1.00  0.00     0.179 C 
BRANCH  58  63
HETATM   63  O   UNL     1      -3.104   7.854  12.236  1.00  0.00    -0.391 OA
HETATM   64  H   UNL     1      -3.047   8.766  11.883  1.00  0.00     0.210 HD
ENDBRANCH  58  63
BRANCH  59  65
HETATM   65  N   UNL     1      -3.101  10.446  13.700  1.00  0.00     0.090 N 
HETATM   66  H   UNL     1      -2.088  10.354  13.597  1.00  0.00     0.313 HD
HETATM   67  H   UNL     1      -3.241  11.177  14.398  1.00  0.00     0.313 HD
ENDBRANCH  59  65
BRANCH  60  68
HETATM   68  O   UNL     1      -3.276  10.436  16.375  1.00  0.00    -0.348 OA
BRANCH  68  69
HETATM   69  C   UNL     1      -4.438  11.044  16.988  1.00  0.00     0.186 C 
HETATM   70  C   UNL     1      -4.157  12.484  17.498  1.00  0.00     0.176 C 
HETATM   71  O   UNL     1      -5.245  12.938  18.329  1.00  0.00    -0.379 OA
HETATM   72  C   UNL     1      -6.513  12.902  17.646  1.00  0.00     0.206 C 
HETATM   73  C   UNL     1      -6.891  11.460  17.221  1.00  0.00     0.278 C 
HETATM   74  C   UNL     1      -5.804  10.921  16.257  1.00  0.00     0.185 C 
BRANCH  70  75
HETATM   75  C   UNL     1      -3.796  13.523  16.406  1.00  0.00     0.198 C 
BRANCH  75  76
HETATM   76  O   UNL     1      -3.051  12.882  15.365  1.00  0.00    -0.398 OA
HETATM   77  H   UNL     1      -3.402  11.968  15.331  1.00  0.00     0.209 HD
ENDBRANCH  75  76
ENDBRANCH  70  75
BRANCH  73  78
HETATM   78  N   UNL     1      -8.214  11.388  16.552  1.00  0.00     0.126 N 
HETATM   79  H   UNL     1      -8.164  10.577  15.931  1.00  0.00     0.320 HD
HETATM   80  C   UNL     1      -9.315  11.128  17.509  1.00  0.00     0.407 C 
HETATM   81  O   UNL     1      -9.829  12.369  18.004  1.00  0.00    -0.201 OA
BRANCH  80  82
HETATM   82  C   UNL     1     -10.459  10.382  16.782  1.00  0.00     0.175 C 
BRANCH  82  83
HETATM   83  N   UNL     1     -10.507  10.733  15.344  1.00  0.00    -0.228 NA
HETATM   84  C   UNL     1     -11.246   9.673  14.627  1.00  0.00     0.130 C 
HETATM   85 CL   UNL     1     -11.377  12.177  15.150  1.00  0.00    -0.022 Cl
ENDBRANCH  82  83
ENDBRANCH  80  82
ENDBRANCH  73  78
BRANCH  74  86
HETATM   86  O   UNL     1      -5.867  11.643  15.017  1.00  0.00    -0.391 OA
HETATM   87  H   UNL     1      -6.576  12.310  15.132  1.00  0.00     0.210 HD
ENDBRANCH  74  86
ENDBRANCH  68  69
ENDBRANCH  60  68
BRANCH  62  88
HETATM   88  C   UNL     1      -0.485   9.776  15.642  1.00  0.00     0.198 C 
BRANCH  88  89
HETATM   89  O   UNL     1      -0.190  10.350  14.366  1.00  0.00    -0.398 OA
HETATM   90  H   UNL     1      -0.699   9.812  13.723  1.00  0.00     0.209 HD
ENDBRANCH  88  89
ENDBRANCH  62  88
ENDBRANCH  56  57
ENDBRANCH   4  56
TORSDOF 36
ENDMDL
MODEL 5
REMARK VINA RESULT:      -7.5      4.741     12.874
REMARK WARNING: 32 MAX_TORS EXCEEDED!!!
REMARK  36 active torsions:
REMARK  status: ('A' for Active; 'I' for Inactive)
REMARK    1  A    between atoms: C_1  and  O_66 
REMARK    2  A    between atoms: C_2  and  O_47 
REMARK    3  A    between atoms: C_4  and  O_40 
REMARK    4  A    between atoms: C_5  and  O_15 
REMARK    5  A    between atoms: C_7  and  C_17 
REMARK    6  A    between atoms: C_8  and  O_9 
REMARK    7  A    between atoms: C_11  and  N_12 
REMARK    8  A    between atoms: N_12  and  C_20 
REMARK    9  A    between atoms: C_14  and  O_15 
REMARK   10  A    between atoms: C_17  and  O_18 
REMARK   11  A    between atoms: C_20  and  O_21 
REMARK   12  A    between atoms: C_20  and  C_23 
REMARK   13  A    between atoms: C_23  and  N_24 
REMARK   14  A    between atoms: C_27  and  C_28 
REMARK   15  A    between atoms: C_28  and  O_29 
REMARK   16  A    between atoms: C_32  and  O_40 
REMARK   17  A    between atoms: C_33  and  N_34 
REMARK   18  A    between atoms: C_37  and  O_38 
REMARK   19  A    between atoms: C_41  and  C_42 
REMARK   20  A    between atoms: C_42  and  O_43 
REMARK   21  A    between atoms: C_46  and  O_47 
REMARK   22  A    between atoms: C_48  and  N_49 
REMARK       I    between atoms: N_49  and  C_51 
REMARK   23  A    between atoms: C_51  and  C_52 
REMARK   24  A    between atoms: C_52  and  N_54 
REMARK   25  A    between atoms: C_56  and  O_57 
REMARK   26  A    between atoms: C_59  and  O_60 
REMARK   27  A    between atoms: C_62  and  N_63 
REMARK   28  A    between atoms: C_65  and  O_66 
REMARK   29  A    between atoms: C_68  and  C_69 
REMARK   30  A    between atoms: C_69  and  O_70 
REMARK   31  A    between atoms: C_73  and  C_74 
REMARK   32  A    between atoms: C_74  and  O_75 
REMARK   33  A    between atoms: C_79  and  O_80 
REMARK   34  A    between atoms: C_82  and  N_83 
REMARK       I    between atoms: N_83  and  C_85 
REMARK   35  A    between atoms: C_85  and  C_87 
REMARK   36  A    between atoms: C_87  and  N_88 
ROOT
HETATM    1  C   UNL     1       1.311   4.234  14.649  1.00  0.00     0.186 C 
HETATM    2  C   UNL     1       2.401   4.284  13.547  1.00  0.00     0.179 C 
HETATM    3  O   UNL     1       2.054   5.255  12.544  1.00  0.00    -0.349 OA
HETATM    4  C   UNL     1       2.072   6.579  13.114  1.00  0.00     0.297 C 
HETATM    5  C   UNL     1       1.027   6.716  14.251  1.00  0.00     0.309 C 
HETATM    6  C   UNL     1       1.291   5.627  15.319  1.00  0.00     0.188 C 
ENDROOT
BRANCH   1   7
HETATM    7  O   UNL     1       0.011   3.947  14.094  1.00  0.00    -0.348 OA
BRANCH   7   8
HETATM    8  C   UNL     1      -0.533   2.725  14.624  1.00  0.00     0.296 C 
HETATM    9  O   UNL     1      -0.822   1.873  13.507  1.00  0.00    -0.349 OA
HETATM   10  C   UNL     1      -1.017   0.522  13.970  1.00  0.00     0.179 C 
HETATM   11  C   UNL     1      -1.891   0.456  15.261  1.00  0.00     0.186 C 
HETATM   12  C   UNL     1      -2.765   1.733  15.379  1.00  0.00     0.187 C 
HETATM   13  C   UNL     1      -1.847   2.984  15.408  1.00  0.00     0.303 C 
BRANCH  10  14
HETATM   14  C   UNL     1      -1.611  -0.290  12.793  1.00  0.00     0.198 C 
BRANCH  14  15
HETATM   15  O   UNL     1      -1.554   0.486  11.590  1.00  0.00    -0.398 OA
HETATM   16  H   UNL     1      -1.411   1.408  11.891  1.00  0.00     0.209 HD
ENDBRANCH  14  15
ENDBRANCH  10  14
BRANCH  11  17
HETATM   17  O   UNL     1      -2.679  -0.751  15.280  1.00  0.00    -0.348 OA
BRANCH  17  18
HETATM   18  C   UNL     1      -3.465  -0.871  16.481  1.00  0.00     0.296 C 
HETATM   19  C   UNL     1      -4.797  -1.600  16.166  1.00  0.00     0.307 C 
HETATM   20  C   UNL     1      -4.527  -3.078  15.788  1.00  0.00     0.163 C 
HETATM   21  C   UNL     1      -3.641  -3.692  16.833  1.00  0.00     0.057 C 
HETATM   22  C   UNL     1      -2.464  -2.913  17.361  1.00  0.00     0.155 C 
HETATM   23  O   UNL     1      -2.766  -1.516  17.570  1.00  0.00    -0.351 OA
BRANCH  19  24
HETATM   24  N   UNL     1      -5.676  -1.530  17.361  1.00  0.00     0.125 N 
HETATM   25  H   UNL     1      -5.174  -1.953  18.145  1.00  0.00     0.320 HD
BRANCH  24  26
HETATM   26  C   UNL     1      -5.970  -0.131  17.754  1.00  0.00     0.369 C 
BRANCH  26  27
HETATM   27  O   UNL     1      -5.773   0.029  19.167  1.00  0.00    -0.367 OA
HETATM   28  H   UNL     1      -5.689  -0.881  19.521  1.00  0.00     0.212 HD
ENDBRANCH  26  27
BRANCH  26  29
HETATM   29  C   UNL     1      -7.426   0.188  17.339  1.00  0.00     0.171 C 
BRANCH  29  30
HETATM   30  N   UNL     1      -8.393  -0.173  18.404  1.00  0.00    -0.228 NA
HETATM   31  C   UNL     1      -9.529   0.772  18.367  1.00  0.00     0.130 C 
HETATM   32 CL   UNL     1      -9.031  -1.713  18.086  1.00  0.00    -0.022 Cl
ENDBRANCH  29  30
ENDBRANCH  26  29
ENDBRANCH  24  26
ENDBRANCH  19  24
BRANCH  20  33
HETATM   33  O   UNL     1      -3.924  -3.178  14.492  1.00  0.00    -0.393 OA
HETATM   34  H   UNL     1      -2.998  -2.880  14.615  1.00  0.00     0.210 HD
ENDBRANCH  20  33
BRANCH  22  35
HETATM   35  C   UNL     1      -1.214  -3.122  16.472  1.00  0.00     0.196 C 
BRANCH  35  36
HETATM   36  O   UNL     1      -1.369  -4.286  15.651  1.00  0.00    -0.398 OA
HETATM   37  H   UNL     1      -1.229  -5.048  16.252  1.00  0.00     0.209 HD
ENDBRANCH  35  36
ENDBRANCH  22  35
ENDBRANCH  17  18
ENDBRANCH  11  17
BRANCH  12  38
HETATM   38  O   UNL     1      -3.680   1.836  14.277  1.00  0.00    -0.391 OA
HETATM   39  H   UNL     1      -3.154   1.621  13.479  1.00  0.00     0.210 HD
ENDBRANCH  12  38
BRANCH  13  40
HETATM   40  N   UNL     1      -1.533   3.353  16.803  1.00  0.00     0.090 N 
HETATM   41  H   UNL     1      -1.479   4.372  16.848  1.00  0.00     0.313 HD
HETATM   42  H   UNL     1      -2.322   3.068  17.386  1.00  0.00     0.313 HD
ENDBRANCH  13  40
ENDBRANCH   7   8
ENDBRANCH   1   7
BRANCH   2  43
HETATM   43  C   UNL     1       2.662   2.907  12.884  1.00  0.00     0.198 C 
BRANCH  43  44
HETATM   44  O   UNL     1       1.659   2.545  11.922  1.00  0.00    -0.398 OA
HETATM   45  H   UNL     1       1.133   3.352  11.763  1.00  0.00     0.209 HD
ENDBRANCH  43  44
ENDBRANCH   2  43
BRANCH   6  46
HETATM   46  O   UNL     1       0.321   5.679  16.376  1.00  0.00    -0.391 OA
HETATM   47  H   UNL     1      -0.540   5.863  15.945  1.00  0.00     0.210 HD
ENDBRANCH   6  46
BRANCH   5  48
HETATM   48  N   UNL     1       1.123   8.049  14.899  1.00  0.00     0.128 N 
HETATM   49  H   UNL     1       1.741   8.648  14.348  1.00  0.00     0.320 HD
HETATM   50  C   UNL     1      -0.199   8.712  14.938  1.00  0.00     0.407 C 
HETATM   51  O   UNL     1      -0.604   9.096  13.618  1.00  0.00    -0.201 OA
BRANCH  50  52
HETATM   52  C   UNL     1      -0.108   9.971  15.829  1.00  0.00     0.175 C 
BRANCH  52  53
HETATM   53  N   UNL     1      -1.286  10.075  16.720  1.00  0.00    -0.228 NA
HETATM   54 CL   UNL     1      -2.534  10.882  15.904  1.00  0.00    -0.022 Cl
HETATM   55  C   UNL     1      -1.769   8.713  17.029  1.00  0.00     0.130 C 
ENDBRANCH  52  53
ENDBRANCH  50  52
ENDBRANCH   5  48
BRANCH   4  56
HETATM   56  O   UNL     1       1.739   7.510  12.070  1.00  0.00    -0.348 OA
BRANCH  56  57
HETATM   57  C   UNL     1       1.297   6.810  10.890  1.00  0.00     0.186 C 
HETATM   58  C   UNL     1      -0.136   7.300  10.579  1.00  0.00     0.187 C 
HETATM   59  C   UNL     1      -0.528   6.867   9.146  1.00  0.00     0.303 C 
HETATM   60  C   UNL     1       0.442   7.550   8.138  1.00  0.00     0.296 C 
HETATM   61  O   UNL     1       1.658   8.031   8.760  1.00  0.00    -0.349 OA
HETATM   62  C   UNL     1       2.255   7.115   9.704  1.00  0.00     0.179 C 
BRANCH  58  63
HETATM   63  O   UNL     1      -1.065   6.825  11.564  1.00  0.00    -0.391 OA
HETATM   64  H   UNL     1      -1.067   5.848  11.493  1.00  0.00     0.210 HD
ENDBRANCH  58  63
BRANCH  59  65
HETATM   65  N   UNL     1      -0.533   5.392   9.010  1.00  0.00     0.090 N 
HETATM   66  H   UNL     1      -1.201   5.157   8.273  1.00  0.00     0.313 HD
HETATM   67  H   UNL     1      -0.923   5.003   9.868  1.00  0.00     0.313 HD
ENDBRANCH  59  65
BRANCH  60  68
HETATM   68  O   UNL     1       0.745   6.676   7.033  1.00  0.00    -0.348 OA
BRANCH  68  69
HETATM   69  C   UNL     1       0.133   6.980   5.756  1.00  0.00     0.186 C 
HETATM   70  C   UNL     1       1.166   7.022   4.597  1.00  0.00     0.176 C 
HETATM   71  O   UNL     1       0.563   7.588   3.414  1.00  0.00    -0.379 OA
HETATM   72  C   UNL     1      -0.611   6.866   2.995  1.00  0.00     0.206 C 
HETATM   73  C   UNL     1      -1.718   6.898   4.080  1.00  0.00     0.278 C 
HETATM   74  C   UNL     1      -1.174   6.234   5.370  1.00  0.00     0.185 C 
BRANCH  70  75
HETATM   75  C   UNL     1       1.885   5.684   4.291  1.00  0.00     0.198 C 
BRANCH  75  76
HETATM   76  O   UNL     1       2.749   5.347   5.382  1.00  0.00    -0.398 OA
HETATM   77  H   UNL     1       2.819   6.169   5.910  1.00  0.00     0.209 HD
ENDBRANCH  75  76
ENDBRANCH  70  75
BRANCH  73  78
HETATM   78  N   UNL     1      -2.956   6.196   3.656  1.00  0.00     0.126 N 
HETATM   79  H   UNL     1      -3.662   6.927   3.546  1.00  0.00     0.320 HD
HETATM   80  C   UNL     1      -2.807   5.540   2.336  1.00  0.00     0.407 C 
HETATM   81  O   UNL     1      -2.319   4.206   2.510  1.00  0.00    -0.201 OA
BRANCH  80  82
HETATM   82  C   UNL     1      -4.188   5.468   1.643  1.00  0.00     0.175 C 
BRANCH  82  83
HETATM   83  N   UNL     1      -4.209   6.263   0.392  1.00  0.00    -0.228 NA
HETATM   84  C   UNL     1      -5.611   6.398  -0.054  1.00  0.00     0.130 C 
HETATM   85 CL   UNL     1      -3.625   7.823   0.713  1.00  0.00    -0.022 Cl
ENDBRANCH  82  83
ENDBRANCH  80  82
ENDBRANCH  73  78
BRANCH  74  86
HETATM   86  O   UNL     1      -0.994   4.828   5.142  1.00  0.00    -0.391 OA
HETATM   87  H   UNL     1      -0.622   4.748   4.239  1.00  0.00     0.210 HD
ENDBRANCH  74  86
ENDBRANCH  68  69
ENDBRANCH  60  68
BRANCH  62  88
HETATM   88  C   UNL     1       2.766   5.822   9.020  1.00  0.00     0.198 C 
BRANCH  88  89
HETATM   89  O   UNL     1       2.344   4.671   9.757  1.00  0.00    -0.398 OA
HETATM   90  H   UNL     1       1.749   4.186   9.147  1.00  0.00     0.209 HD
ENDBRANCH  88  89
ENDBRANCH  62  88
ENDBRANCH  56  57
ENDBRANCH   4  56
TORSDOF 36
ENDMDL
MODEL 6
REMARK VINA RESULT:      -7.4      4.169     12.687
REMARK WARNING: 32 MAX_TORS EXCEEDED!!!
REMARK  36 active torsions:
REMARK  status: ('A' for Active; 'I' for Inactive)
REMARK    1  A    between atoms: C_1  and  O_66 
REMARK    2  A    between atoms: C_2  and  O_47 
REMARK    3  A    between atoms: C_4  and  O_40 
REMARK    4  A    between atoms: C_5  and  O_15 
REMARK    5  A    between atoms: C_7  and  C_17 
REMARK    6  A    between atoms: C_8  and  O_9 
REMARK    7  A    between atoms: C_11  and  N_12 
REMARK    8  A    between atoms: N_12  and  C_20 
REMARK    9  A    between atoms: C_14  and  O_15 
REMARK   10  A    between atoms: C_17  and  O_18 
REMARK   11  A    between atoms: C_20  and  O_21 
REMARK   12  A    between atoms: C_20  and  C_23 
REMARK   13  A    between atoms: C_23  and  N_24 
REMARK   14  A    between atoms: C_27  and  C_28 
REMARK   15  A    between atoms: C_28  and  O_29 
REMARK   16  A    between atoms: C_32  and  O_40 
REMARK   17  A    between atoms: C_33  and  N_34 
REMARK   18  A    between atoms: C_37  and  O_38 
REMARK   19  A    between atoms: C_41  and  C_42 
REMARK   20  A    between atoms: C_42  and  O_43 
REMARK   21  A    between atoms: C_46  and  O_47 
REMARK   22  A    between atoms: C_48  and  N_49 
REMARK       I    between atoms: N_49  and  C_51 
REMARK   23  A    between atoms: C_51  and  C_52 
REMARK   24  A    between atoms: C_52  and  N_54 
REMARK   25  A    between atoms: C_56  and  O_57 
REMARK   26  A    between atoms: C_59  and  O_60 
REMARK   27  A    between atoms: C_62  and  N_63 
REMARK   28  A    between atoms: C_65  and  O_66 
REMARK   29  A    between atoms: C_68  and  C_69 
REMARK   30  A    between atoms: C_69  and  O_70 
REMARK   31  A    between atoms: C_73  and  C_74 
REMARK   32  A    between atoms: C_74  and  O_75 
REMARK   33  A    between atoms: C_79  and  O_80 
REMARK   34  A    between atoms: C_82  and  N_83 
REMARK       I    between atoms: N_83  and  C_85 
REMARK   35  A    between atoms: C_85  and  C_87 
REMARK   36  A    between atoms: C_87  and  N_88 
ROOT
HETATM    1  C   UNL     1       1.092   7.335  13.868  1.00  0.00     0.186 C 
HETATM    2  C   UNL     1       2.403   7.965  13.331  1.00  0.00     0.179 C 
HETATM    3  O   UNL     1       2.277   8.262  11.929  1.00  0.00    -0.349 OA
HETATM    4  C   UNL     1       1.289   9.293  11.731  1.00  0.00     0.297 C 
HETATM    5  C   UNL     1      -0.109   8.831  12.218  1.00  0.00     0.309 C 
HETATM    6  C   UNL     1      -0.015   8.403  13.702  1.00  0.00     0.188 C 
ENDROOT
BRANCH   1   7
HETATM    7  O   UNL     1       0.732   6.150  13.129  1.00  0.00    -0.348 OA
BRANCH   7   8
HETATM    8  C   UNL     1       0.793   4.974  13.954  1.00  0.00     0.296 C 
HETATM    9  O   UNL     1       1.648   4.035  13.286  1.00  0.00    -0.349 OA
HETATM   10  C   UNL     1       2.044   3.002  14.212  1.00  0.00     0.179 C 
HETATM   11  C   UNL     1       0.854   2.503  15.089  1.00  0.00     0.186 C 
HETATM   12  C   UNL     1      -0.494   2.806  14.382  1.00  0.00     0.187 C 
HETATM   13  C   UNL     1      -0.610   4.333  14.130  1.00  0.00     0.303 C 
BRANCH  10  14
HETATM   14  C   UNL     1       2.707   1.871  13.388  1.00  0.00     0.198 C 
BRANCH  14  15
HETATM   15  O   UNL     1       2.030   1.723  12.134  1.00  0.00    -0.398 OA
HETATM   16  H   UNL     1       1.610   0.839  12.177  1.00  0.00     0.209 HD
ENDBRANCH  14  15
ENDBRANCH  10  14
BRANCH  11  17
HETATM   17  O   UNL     1       1.006   1.103  15.400  1.00  0.00    -0.348 OA
BRANCH  17  18
HETATM   18  C   UNL     1       0.134   0.683  16.468  1.00  0.00     0.296 C 
HETATM   19  C   UNL     1      -0.447  -0.718  16.150  1.00  0.00     0.307 C 
HETATM   20  C   UNL     1       0.672  -1.788  16.188  1.00  0.00     0.163 C 
HETATM   21  C   UNL     1       1.443  -1.640  17.467  1.00  0.00     0.057 C 
HETATM   22  C   UNL     1       1.818  -0.265  17.954  1.00  0.00     0.155 C 
HETATM   23  O   UNL     1       0.761   0.702  17.771  1.00  0.00    -0.351 OA
BRANCH  19  24
HETATM   24  N   UNL     1      -1.496  -1.041  17.152  1.00  0.00     0.125 N 
HETATM   25  H   UNL     1      -1.535  -0.270  17.824  1.00  0.00     0.320 HD
BRANCH  24  26
HETATM   26  C   UNL     1      -2.842  -1.134  16.539  1.00  0.00     0.369 C 
BRANCH  26  27
HETATM   27  O   UNL     1      -2.774  -0.765  15.154  1.00  0.00    -0.367 OA
HETATM   28  H   UNL     1      -1.947  -1.172  14.819  1.00  0.00     0.212 HD
ENDBRANCH  26  27
BRANCH  26  29
HETATM   29  C   UNL     1      -3.795  -0.208  17.332  1.00  0.00     0.171 C 
BRANCH  29  30
HETATM   30  N   UNL     1      -4.207   0.971  16.532  1.00  0.00    -0.228 NA
HETATM   31  C   UNL     1      -5.539   1.423  16.987  1.00  0.00     0.130 C 
HETATM   32 CL   UNL     1      -3.132   2.252  16.824  1.00  0.00    -0.022 Cl
ENDBRANCH  29  30
ENDBRANCH  26  29
ENDBRANCH  24  26
ENDBRANCH  19  24
BRANCH  20  33
HETATM   33  O   UNL     1       1.543  -1.664  15.056  1.00  0.00    -0.393 OA
HETATM   34  H   UNL     1       1.084  -2.130  14.326  1.00  0.00     0.210 HD
ENDBRANCH  20  33
BRANCH  22  35
HETATM   35  C   UNL     1       3.159   0.199  17.333  1.00  0.00     0.196 C 
BRANCH  35  36
HETATM   36  O   UNL     1       3.300   1.620  17.443  1.00  0.00    -0.398 OA
HETATM   37  H   UNL     1       2.727   1.992  16.740  1.00  0.00     0.209 HD
ENDBRANCH  35  36
ENDBRANCH  22  35
ENDBRANCH  17  18
ENDBRANCH  11  17
BRANCH  12  38
HETATM   38  O   UNL     1      -0.592   2.106  13.133  1.00  0.00    -0.391 OA
HETATM   39  H   UNL     1      -1.518   1.790  13.081  1.00  0.00     0.210 HD
ENDBRANCH  12  38
BRANCH  13  40
HETATM   40  N   UNL     1      -1.319   4.982  15.251  1.00  0.00     0.090 N 
HETATM   41  H   UNL     1      -2.274   5.174  14.943  1.00  0.00     0.313 HD
HETATM   42  H   UNL     1      -1.380   4.306  16.015  1.00  0.00     0.313 HD
ENDBRANCH  13  40
ENDBRANCH   7   8
ENDBRANCH   1   7
BRANCH   2  43
HETATM   43  C   UNL     1       3.650   7.077  13.575  1.00  0.00     0.198 C 
BRANCH  43  44
HETATM   44  O   UNL     1       3.819   6.055  12.581  1.00  0.00    -0.398 OA
HETATM   45  H   UNL     1       4.772   5.842  12.570  1.00  0.00     0.209 HD
ENDBRANCH  43  44
ENDBRANCH   2  43
BRANCH   6  46
HETATM   46  O   UNL     1      -1.275   7.923  14.194  1.00  0.00    -0.391 OA
HETATM   47  H   UNL     1      -1.952   8.237  13.558  1.00  0.00     0.210 HD
ENDBRANCH   6  46
BRANCH   5  48
HETATM   48  N   UNL     1      -1.098   9.933  12.105  1.00  0.00     0.128 N 
HETATM   49  H   UNL     1      -1.952   9.672  12.603  1.00  0.00     0.320 HD
HETATM   50  C   UNL     1      -0.587  11.167  12.741  1.00  0.00     0.407 C 
HETATM   51  O   UNL     1      -0.538  11.011  14.164  1.00  0.00    -0.201 OA
BRANCH  50  52
HETATM   52  C   UNL     1      -1.526  12.342  12.390  1.00  0.00     0.175 C 
BRANCH  52  53
HETATM   53  N   UNL     1      -0.798  13.399  11.650  1.00  0.00    -0.228 NA
HETATM   54 CL   UNL     1       0.158  12.681  10.447  1.00  0.00    -0.022 Cl
HETATM   55  C   UNL     1      -1.783  14.267  10.971  1.00  0.00     0.130 C 
ENDBRANCH  52  53
ENDBRANCH  50  52
ENDBRANCH   5  48
BRANCH   4  56
HETATM   56  O   UNL     1       1.216   9.564  10.321  1.00  0.00    -0.348 OA
BRANCH  56  57
HETATM   57  C   UNL     1       0.550   8.489   9.631  1.00  0.00     0.186 C 
HETATM   58  C   UNL     1      -0.358   9.129   8.556  1.00  0.00     0.187 C 
HETATM   59  C   UNL     1      -0.820   8.041   7.558  1.00  0.00     0.303 C 
HETATM   60  C   UNL     1       0.435   7.461   6.842  1.00  0.00     0.296 C 
HETATM   61  O   UNL     1       1.669   7.738   7.547  1.00  0.00    -0.349 OA
HETATM   62  C   UNL     1       1.601   7.548   8.977  1.00  0.00     0.179 C 
BRANCH  58  63
HETATM   63  O   UNL     1      -1.463   9.815   9.162  1.00  0.00    -0.391 OA
HETATM   64  H   UNL     1      -2.275   9.395   8.810  1.00  0.00     0.210 HD
ENDBRANCH  58  63
BRANCH  59  65
HETATM   65  N   UNL     1      -1.617   6.992   8.233  1.00  0.00     0.090 N 
HETATM   66  H   UNL     1      -2.428   7.450   8.654  1.00  0.00     0.313 HD
HETATM   67  H   UNL     1      -1.066   6.638   9.015  1.00  0.00     0.313 HD
ENDBRANCH  59  65
BRANCH  60  68
HETATM   68  O   UNL     1       0.290   6.046   6.603  1.00  0.00    -0.348 OA
BRANCH  68  69
HETATM   69  C   UNL     1      -0.119   5.633   5.277  1.00  0.00     0.186 C 
HETATM   70  C   UNL     1      -0.377   4.104   5.184  1.00  0.00     0.176 C 
HETATM   71  O   UNL     1      -0.514   3.707   3.804  1.00  0.00    -0.379 OA
HETATM   72  C   UNL     1      -1.566   4.421   3.126  1.00  0.00     0.206 C 
HETATM   73  C   UNL     1      -1.290   5.946   3.092  1.00  0.00     0.278 C 
HETATM   74  C   UNL     1      -1.205   6.471   4.548  1.00  0.00     0.185 C 
BRANCH  70  75
HETATM   75  C   UNL     1      -1.540   3.567   6.055  1.00  0.00     0.198 C 
BRANCH  75  76
HETATM   76  O   UNL     1      -1.627   4.334   7.261  1.00  0.00    -0.398 OA
HETATM   77  H   UNL     1      -0.716   4.658   7.419  1.00  0.00     0.209 HD
ENDBRANCH  75  76
ENDBRANCH  70  75
BRANCH  73  78
HETATM   78  N   UNL     1      -2.339   6.702   2.363  1.00  0.00     0.126 N 
HETATM   79  H   UNL     1      -1.891   7.568   2.056  1.00  0.00     0.320 HD
HETATM   80  C   UNL     1      -2.794   5.997   1.142  1.00  0.00     0.407 C 
HETATM   81  O   UNL     1      -3.887   5.130   1.461  1.00  0.00    -0.201 OA
BRANCH  80  82
HETATM   82  C   UNL     1      -3.282   7.035   0.104  1.00  0.00     0.175 C 
BRANCH  82  83
HETATM   83  N   UNL     1      -2.263   7.272  -0.946  1.00  0.00    -0.228 NA
HETATM   84  C   UNL     1      -1.163   6.303  -0.759  1.00  0.00     0.130 C 
HETATM   85 CL   UNL     1      -2.950   6.971  -2.468  1.00  0.00    -0.022 Cl
ENDBRANCH  82  83
ENDBRANCH  80  82
ENDBRANCH  73  78
BRANCH  74  86
HETATM   86  O   UNL     1      -2.503   6.398   5.158  1.00  0.00    -0.391 OA
HETATM   87  H   UNL     1      -2.380   5.890   5.987  1.00  0.00     0.210 HD
ENDBRANCH  74  86
ENDBRANCH  68  69
ENDBRANCH  60  68
BRANCH  62  88
HETATM   88  C   UNL     1       1.372   6.064   9.358  1.00  0.00     0.198 C 
BRANCH  88  89
HETATM   89  O   UNL     1       0.405   5.965  10.408  1.00  0.00    -0.398 OA
HETATM   90  H   UNL     1      -0.462   5.957   9.951  1.00  0.00     0.209 HD
ENDBRANCH  88  89
ENDBRANCH  62  88
ENDBRANCH  56  57
ENDBRANCH   4  56
TORSDOF 36
ENDMDL
MODEL 7
REMARK VINA RESULT:      -7.3      4.973     12.001
REMARK WARNING: 32 MAX_TORS EXCEEDED!!!
REMARK  36 active torsions:
REMARK  status: ('A' for Active; 'I' for Inactive)
REMARK    1  A    between atoms: C_1  and  O_66 
REMARK    2  A    between atoms: C_2  and  O_47 
REMARK    3  A    between atoms: C_4  and  O_40 
REMARK    4  A    between atoms: C_5  and  O_15 
REMARK    5  A    between atoms: C_7  and  C_17 
REMARK    6  A    between atoms: C_8  and  O_9 
REMARK    7  A    between atoms: C_11  and  N_12 
REMARK    8  A    between atoms: N_12  and  C_20 
REMARK    9  A    between atoms: C_14  and  O_15 
REMARK   10  A    between atoms: C_17  and  O_18 
REMARK   11  A    between atoms: C_20  and  O_21 
REMARK   12  A    between atoms: C_20  and  C_23 
REMARK   13  A    between atoms: C_23  and  N_24 
REMARK   14  A    between atoms: C_27  and  C_28 
REMARK   15  A    between atoms: C_28  and  O_29 
REMARK   16  A    between atoms: C_32  and  O_40 
REMARK   17  A    between atoms: C_33  and  N_34 
REMARK   18  A    between atoms: C_37  and  O_38 
REMARK   19  A    between atoms: C_41  and  C_42 
REMARK   20  A    between atoms: C_42  and  O_43 
REMARK   21  A    between atoms: C_46  and  O_47 
REMARK   22  A    between atoms: C_48  and  N_49 
REMARK       I    between atoms: N_49  and  C_51 
REMARK   23  A    between atoms: C_51  and  C_52 
REMARK   24  A    between atoms: C_52  and  N_54 
REMARK   25  A    between atoms: C_56  and  O_57 
REMARK   26  A    between atoms: C_59  and  O_60 
REMARK   27  A    between atoms: C_62  and  N_63 
REMARK   28  A    between atoms: C_65  and  O_66 
REMARK   29  A    between atoms: C_68  and  C_69 
REMARK   30  A    between atoms: C_69  and  O_70 
REMARK   31  A    between atoms: C_73  and  C_74 
REMARK   32  A    between atoms: C_74  and  O_75 
REMARK   33  A    between atoms: C_79  and  O_80 
REMARK   34  A    between atoms: C_82  and  N_83 
REMARK       I    between atoms: N_83  and  C_85 
REMARK   35  A    between atoms: C_85  and  C_87 
REMARK   36  A    between atoms: C_87  and  N_88 
ROOT
HETATM    1  C   UNL     1       0.858   3.778  14.248  1.00  0.00     0.186 C 
HETATM    2  C   UNL     1       2.287   4.363  14.105  1.00  0.00     0.179 C 
HETATM    3  O   UNL     1       2.310   5.383  13.092  1.00  0.00    -0.349 OA
HETATM    4  C   UNL     1       1.512   6.510  13.508  1.00  0.00     0.297 C 
HETATM    5  C   UNL     1       0.028   6.105  13.702  1.00  0.00     0.309 C 
HETATM    6  C   UNL     1      -0.053   4.938  14.715  1.00  0.00     0.188 C 
ENDROOT
BRANCH   1   7
HETATM    7  O   UNL     1       0.372   3.258  12.995  1.00  0.00    -0.348 OA
BRANCH   7   8
HETATM    8  C   UNL     1      -0.117   1.913  13.134  1.00  0.00     0.296 C 
HETATM    9  O   UNL     1      -1.262   1.967  13.997  1.00  0.00    -0.349 OA
HETATM   10  C   UNL     1      -2.007   0.738  13.885  1.00  0.00     0.179 C 
HETATM   11  C   UNL     1      -1.083  -0.519  13.875  1.00  0.00     0.186 C 
HETATM   12  C   UNL     1       0.279  -0.185  14.541  1.00  0.00     0.187 C 
HETATM   13  C   UNL     1       0.950   0.987  13.778  1.00  0.00     0.303 C 
BRANCH  10  14
HETATM   14  C   UNL     1      -3.045   0.720  15.033  1.00  0.00     0.198 C 
BRANCH  14  15
HETATM   15  O   UNL     1      -3.136   2.021  15.627  1.00  0.00    -0.398 OA
HETATM   16  H   UNL     1      -2.345   2.500  15.304  1.00  0.00     0.209 HD
ENDBRANCH  14  15
ENDBRANCH  10  14
BRANCH  11  17
HETATM   17  O   UNL     1      -1.741  -1.637  14.505  1.00  0.00    -0.348 OA
BRANCH  17  18
HETATM   18  C   UNL     1      -2.507  -2.418  13.569  1.00  0.00     0.296 C 
HETATM   19  C   UNL     1      -1.589  -3.461  12.880  1.00  0.00     0.307 C 
HETATM   20  C   UNL     1      -1.120  -4.525  13.904  1.00  0.00     0.163 C 
HETATM   21  C   UNL     1      -2.316  -5.049  14.644  1.00  0.00     0.057 C 
HETATM   22  C   UNL     1      -3.375  -4.088  15.118  1.00  0.00     0.155 C 
HETATM   23  O   UNL     1      -3.667  -3.054  14.153  1.00  0.00    -0.351 OA
BRANCH  19  24
HETATM   24  N   UNL     1      -2.343  -4.111  11.777  1.00  0.00     0.125 N 
HETATM   25  H   UNL     1      -2.454  -3.425  11.027  1.00  0.00     0.320 HD
BRANCH  24  26
HETATM   26  C   UNL     1      -1.602  -5.255  11.195  1.00  0.00     0.369 C 
BRANCH  26  27
HETATM   27  O   UNL     1      -0.877  -4.827  10.033  1.00  0.00    -0.367 OA
HETATM   28  H   UNL     1      -0.124  -4.303  10.378  1.00  0.00     0.212 HD
ENDBRANCH  26  27
BRANCH  26  29
HETATM   29  C   UNL     1      -2.625  -6.366  10.855  1.00  0.00     0.171 C 
BRANCH  29  30
HETATM   30  N   UNL     1      -2.208  -7.681  11.399  1.00  0.00    -0.228 NA
HETATM   31  C   UNL     1      -3.366  -8.321  12.058  1.00  0.00     0.130 C 
HETATM   32 CL   UNL     1      -1.752  -8.700  10.120  1.00  0.00    -0.022 Cl
ENDBRANCH  29  30
ENDBRANCH  26  29
ENDBRANCH  24  26
ENDBRANCH  19  24
BRANCH  20  33
HETATM   33  O   UNL     1      -0.161  -3.976  14.817  1.00  0.00    -0.393 OA
HETATM   34  H   UNL     1       0.668  -3.894  14.301  1.00  0.00     0.210 HD
ENDBRANCH  20  33
BRANCH  22  35
HETATM   35  C   UNL     1      -3.021  -3.515  16.512  1.00  0.00     0.196 C 
BRANCH  35  36
HETATM   36  O   UNL     1      -3.715  -2.282  16.741  1.00  0.00    -0.398 OA
HETATM   37  H   UNL     1      -4.122  -2.051  15.879  1.00  0.00     0.209 HD
ENDBRANCH  35  36
ENDBRANCH  22  35
ENDBRANCH  17  18
ENDBRANCH  11  17
BRANCH  12  38
HETATM   38  O   UNL     1       0.105   0.177  15.918  1.00  0.00    -0.391 OA
HETATM   39  H   UNL     1       0.378  -0.610  16.434  1.00  0.00     0.210 HD
ENDBRANCH  12  38
BRANCH  13  40
HETATM   40  N   UNL     1       1.853   0.463  12.733  1.00  0.00     0.090 N 
HETATM   41  H   UNL     1       2.626  -0.012  13.203  1.00  0.00     0.313 HD
HETATM   42  H   UNL     1       1.341  -0.246  12.204  1.00  0.00     0.313 HD
ENDBRANCH  13  40
ENDBRANCH   7   8
ENDBRANCH   1   7
BRANCH   2  43
HETATM   43  C   UNL     1       3.359   3.286  13.799  1.00  0.00     0.198 C 
BRANCH  43  44
HETATM   44  O   UNL     1       3.871   2.649  14.980  1.00  0.00    -0.398 OA
HETATM   45  H   UNL     1       4.389   1.881  14.669  1.00  0.00     0.209 HD
ENDBRANCH  43  44
ENDBRANCH   2  43
BRANCH   6  46
HETATM   46  O   UNL     1      -1.405   4.492  14.899  1.00  0.00    -0.391 OA
HETATM   47  H   UNL     1      -1.376   3.828  15.620  1.00  0.00     0.210 HD
ENDBRANCH   6  46
BRANCH   5  48
HETATM   48  N   UNL     1      -0.766   7.245  14.228  1.00  0.00     0.128 N 
HETATM   49  H   UNL     1      -0.488   8.101  13.743  1.00  0.00     0.320 HD
HETATM   50  C   UNL     1      -2.208   7.048  13.965  1.00  0.00     0.407 C 
HETATM   51  O   UNL     1      -2.481   7.169  12.563  1.00  0.00    -0.201 OA
BRANCH  50  52
HETATM   52  C   UNL     1      -3.013   8.119  14.735  1.00  0.00     0.175 C 
BRANCH  52  53
HETATM   53  N   UNL     1      -2.805   7.989  16.196  1.00  0.00    -0.228 NA
HETATM   54 CL   UNL     1      -2.019   9.375  16.774  1.00  0.00    -0.022 Cl
HETATM   55  C   UNL     1      -4.125   7.920  16.858  1.00  0.00     0.130 C 
ENDBRANCH  52  53
ENDBRANCH  50  52
ENDBRANCH   5  48
BRANCH   4  56
HETATM   56  O   UNL     1       1.585   7.504  12.472  1.00  0.00    -0.348 OA
BRANCH  56  57
HETATM   57  C   UNL     1       0.614   7.235  11.443  1.00  0.00     0.186 C 
HETATM   58  C   UNL     1       0.180   8.599  10.857  1.00  0.00     0.187 C 
HETATM   59  C   UNL     1      -0.578   8.371   9.527  1.00  0.00     0.303 C 
HETATM   60  C   UNL     1       0.393   7.700   8.512  1.00  0.00     0.296 C 
HETATM   61  O   UNL     1       1.544   7.090   9.146  1.00  0.00    -0.349 OA
HETATM   62  C   UNL     1       1.243   6.337  10.341  1.00  0.00     0.179 C 
BRANCH  58  63
HETATM   63  O   UNL     1      -0.599   9.340  11.807  1.00  0.00    -0.391 OA
HETATM   64  H   UNL     1      -0.058   9.398  12.622  1.00  0.00     0.210 HD
ENDBRANCH  58  63
BRANCH  59  65
HETATM   65  N   UNL     1      -1.809   7.576   9.737  1.00  0.00     0.090 N 
HETATM   66  H   UNL     1      -2.585   8.105   9.332  1.00  0.00     0.313 HD
HETATM   67  H   UNL     1      -1.992   7.547  10.741  1.00  0.00     0.313 HD
ENDBRANCH  59  65
BRANCH  60  68
HETATM   68  O   UNL     1      -0.300   6.744   7.684  1.00  0.00    -0.348 OA
BRANCH  68  69
HETATM   69  C   UNL     1      -0.445   7.063   6.279  1.00  0.00     0.186 C 
HETATM   70  C   UNL     1       0.901   6.975   5.508  1.00  0.00     0.176 C 
HETATM   71  O   UNL     1       0.759   7.555   4.194  1.00  0.00    -0.379 OA
HETATM   72  C   UNL     1      -0.285   6.929   3.425  1.00  0.00     0.206 C 
HETATM   73  C   UNL     1      -1.670   7.095   4.102  1.00  0.00     0.278 C 
HETATM   74  C   UNL     1      -1.628   6.426   5.498  1.00  0.00     0.185 C 
BRANCH  70  75
HETATM   75  C   UNL     1       1.548   5.568   5.448  1.00  0.00     0.198 C 
BRANCH  75  76
HETATM   76  O   UNL     1       1.406   4.923   6.718  1.00  0.00    -0.398 OA
HETATM   77  H   UNL     1       0.518   4.509   6.692  1.00  0.00     0.209 HD
ENDBRANCH  75  76
ENDBRANCH  70  75
BRANCH  73  78
HETATM   78  N   UNL     1      -2.772   6.496   3.308  1.00  0.00     0.126 N 
HETATM   79  H   UNL     1      -3.288   7.285   2.913  1.00  0.00     0.320 HD
HETATM   80  C   UNL     1      -2.271   5.695   2.166  1.00  0.00     0.407 C 
HETATM   81  O   UNL     1      -2.064   4.340   2.577  1.00  0.00    -0.201 OA
BRANCH  80  82
HETATM   82  C   UNL     1      -3.325   5.706   1.033  1.00  0.00     0.175 C 
BRANCH  82  83
HETATM   83  N   UNL     1      -2.827   6.423  -0.164  1.00  0.00    -0.228 NA
HETATM   84  C   UNL     1      -3.005   7.874   0.050  1.00  0.00     0.130 C 
HETATM   85 CL   UNL     1      -1.164   6.135  -0.335  1.00  0.00    -0.022 Cl
ENDBRANCH  82  83
ENDBRANCH  80  82
ENDBRANCH  73  78
BRANCH  74  86
HETATM   86  O   UNL     1      -1.521   5.002   5.341  1.00  0.00    -0.391 OA
HETATM   87  H   UNL     1      -1.382   4.643   6.243  1.00  0.00     0.210 HD
ENDBRANCH  74  86
ENDBRANCH  68  69
ENDBRANCH  60  68
BRANCH  62  88
HETATM   88  C   UNL     1       0.377   5.088  10.042  1.00  0.00     0.198 C 
BRANCH  88  89
HETATM   89  O   UNL     1      -0.745   5.039  10.928  1.00  0.00    -0.398 OA
HETATM   90  H   UNL     1      -0.852   5.959  11.250  1.00  0.00     0.209 HD
ENDBRANCH  88  89
ENDBRANCH  62  88
ENDBRANCH  56  57
ENDBRANCH   4  56
TORSDOF 36
ENDMDL
MODEL 8
REMARK VINA RESULT:      -7.1      6.881     12.240
REMARK WARNING: 32 MAX_TORS EXCEEDED!!!
REMARK  36 active torsions:
REMARK  status: ('A' for Active; 'I' for Inactive)
REMARK    1  A    between atoms: C_1  and  O_66 
REMARK    2  A    between atoms: C_2  and  O_47 
REMARK    3  A    between atoms: C_4  and  O_40 
REMARK    4  A    between atoms: C_5  and  O_15 
REMARK    5  A    between atoms: C_7  and  C_17 
REMARK    6  A    between atoms: C_8  and  O_9 
REMARK    7  A    between atoms: C_11  and  N_12 
REMARK    8  A    between atoms: N_12  and  C_20 
REMARK    9  A    between atoms: C_14  and  O_15 
REMARK   10  A    between atoms: C_17  and  O_18 
REMARK   11  A    between atoms: C_20  and  O_21 
REMARK   12  A    between atoms: C_20  and  C_23 
REMARK   13  A    between atoms: C_23  and  N_24 
REMARK   14  A    between atoms: C_27  and  C_28 
REMARK   15  A    between atoms: C_28  and  O_29 
REMARK   16  A    between atoms: C_32  and  O_40 
REMARK   17  A    between atoms: C_33  and  N_34 
REMARK   18  A    between atoms: C_37  and  O_38 
REMARK   19  A    between atoms: C_41  and  C_42 
REMARK   20  A    between atoms: C_42  and  O_43 
REMARK   21  A    between atoms: C_46  and  O_47 
REMARK   22  A    between atoms: C_48  and  N_49 
REMARK       I    between atoms: N_49  and  C_51 
REMARK   23  A    between atoms: C_51  and  C_52 
REMARK   24  A    between atoms: C_52  and  N_54 
REMARK   25  A    between atoms: C_56  and  O_57 
REMARK   26  A    between atoms: C_59  and  O_60 
REMARK   27  A    between atoms: C_62  and  N_63 
REMARK   28  A    between atoms: C_65  and  O_66 
REMARK   29  A    between atoms: C_68  and  C_69 
REMARK   30  A    between atoms: C_69  and  O_70 
REMARK   31  A    between atoms: C_73  and  C_74 
REMARK   32  A    between atoms: C_74  and  O_75 
REMARK   33  A    between atoms: C_79  and  O_80 
REMARK   34  A    between atoms: C_82  and  N_83 
REMARK       I    between atoms: N_83  and  C_85 
REMARK   35  A    between atoms: C_85  and  C_87 
REMARK   36  A    between atoms: C_87  and  N_88 
ROOT
HETATM    1  C   UNL     1      -0.349  -1.862  13.981  1.00  0.00     0.186 C 
HETATM    2  C   UNL     1      -0.519  -0.430  13.410  1.00  0.00     0.179 C 
HETATM    3  O   UNL     1      -0.663   0.521  14.480  1.00  0.00    -0.349 OA
HETATM    4  C   UNL     1       0.559   0.592  15.243  1.00  0.00     0.297 C 
HETATM    5  C   UNL     1       0.891  -0.773  15.899  1.00  0.00     0.309 C 
HETATM    6  C   UNL     1       0.963  -1.861  14.801  1.00  0.00     0.188 C 
ENDROOT
BRANCH   1   7
HETATM    7  O   UNL     1      -1.452  -2.224  14.836  1.00  0.00    -0.348 OA
BRANCH   7   8
HETATM    8  C   UNL     1      -1.981  -3.518  14.497  1.00  0.00     0.296 C 
HETATM    9  O   UNL     1      -1.094  -4.496  15.057  1.00  0.00    -0.349 OA
HETATM   10  C   UNL     1      -1.746  -5.783  15.075  1.00  0.00     0.179 C 
HETATM   11  C   UNL     1      -2.513  -6.079  13.749  1.00  0.00     0.186 C 
HETATM   12  C   UNL     1      -1.929  -5.224  12.593  1.00  0.00     0.187 C 
HETATM   13  C   UNL     1      -2.039  -3.720  12.959  1.00  0.00     0.303 C 
BRANCH  10  14
HETATM   14  C   UNL     1      -0.666  -6.844  15.402  1.00  0.00     0.198 C 
BRANCH  14  15
HETATM   15  O   UNL     1       0.496  -6.620  14.595  1.00  0.00    -0.398 OA
HETATM   16  H   UNL     1       0.905  -5.808  14.961  1.00  0.00     0.209 HD
ENDBRANCH  14  15
ENDBRANCH  10  14
BRANCH  11  17
HETATM   17  O   UNL     1      -2.489  -7.490  13.454  1.00  0.00    -0.348 OA
BRANCH  17  18
HETATM   18  C   UNL     1      -2.488  -7.751  12.038  1.00  0.00     0.296 C 
HETATM   19  C   UNL     1      -1.429  -8.835  11.705  1.00  0.00     0.307 C 
HETATM   20  C   UNL     1      -1.851 -10.201  12.300  1.00  0.00     0.163 C 
HETATM   21  C   UNL     1      -3.271 -10.486  11.905  1.00  0.00     0.057 C 
HETATM   22  C   UNL     1      -4.296  -9.385  11.972  1.00  0.00     0.155 C 
HETATM   23  O   UNL     1      -3.785  -8.115  11.512  1.00  0.00    -0.351 OA
BRANCH  19  24
HETATM   24  N   UNL     1      -1.298  -8.939  10.229  1.00  0.00     0.125 N 
HETATM   25  H   UNL     1      -1.927  -8.251   9.808  1.00  0.00     0.320 HD
BRANCH  24  26
HETATM   26  C   UNL     1       0.069  -8.597   9.766  1.00  0.00     0.369 C 
BRANCH  26  27
HETATM   27  O   UNL     1       0.808  -7.989  10.835  1.00  0.00    -0.367 OA
HETATM   28  H   UNL     1       1.751  -8.085  10.584  1.00  0.00     0.212 HD
ENDBRANCH  26  27
BRANCH  26  29
HETATM   29  C   UNL     1      -0.060  -7.651   8.548  1.00  0.00     0.171 C 
BRANCH  29  30
HETATM   30  N   UNL     1       0.579  -6.336   8.804  1.00  0.00    -0.228 NA
HETATM   31  C   UNL     1       1.748  -6.186   7.913  1.00  0.00     0.130 C 
HETATM   32 CL   UNL     1      -0.506  -5.096   8.398  1.00  0.00    -0.022 Cl
ENDBRANCH  29  30
ENDBRANCH  26  29
ENDBRANCH  24  26
ENDBRANCH  19  24
BRANCH  20  33
HETATM   33  O   UNL     1      -1.712 -10.208  13.727  1.00  0.00    -0.393 OA
HETATM   34  H   UNL     1      -2.628 -10.166  14.074  1.00  0.00     0.210 HD
ENDBRANCH  20  33
BRANCH  22  35
HETATM   35  C   UNL     1      -4.924  -9.295  13.384  1.00  0.00     0.196 C 
BRANCH  35  36
HETATM   36  O   UNL     1      -4.752 -10.528  14.092  1.00  0.00    -0.398 OA
HETATM   37  H   UNL     1      -5.060 -11.226  13.476  1.00  0.00     0.209 HD
ENDBRANCH  35  36
ENDBRANCH  22  35
ENDBRANCH  17  18
ENDBRANCH  11  17
BRANCH  12  38
HETATM   38  O   UNL     1      -0.555  -5.558  12.347  1.00  0.00    -0.391 OA
HETATM   39  H   UNL     1      -0.575  -6.289  11.694  1.00  0.00     0.210 HD
ENDBRANCH  12  38
BRANCH  13  40
HETATM   40  N   UNL     1      -3.297  -3.158  12.428  1.00  0.00     0.090 N 
HETATM   41  H   UNL     1      -3.313  -2.163  12.661  1.00  0.00     0.313 HD
HETATM   42  H   UNL     1      -3.265  -3.227  11.408  1.00  0.00     0.313 HD
ENDBRANCH  13  40
ENDBRANCH   7   8
ENDBRANCH   1   7
BRANCH   2  43
HETATM   43  C   UNL     1      -1.708  -0.303  12.424  1.00  0.00     0.198 C 
BRANCH  43  44
HETATM   44  O   UNL     1      -1.519   0.728  11.442  1.00  0.00    -0.398 OA
HETATM   45  H   UNL     1      -2.296   0.684  10.852  1.00  0.00     0.209 HD
ENDBRANCH  43  44
ENDBRANCH   2  43
BRANCH   6  46
HETATM   46  O   UNL     1       1.224  -3.157  15.358  1.00  0.00    -0.391 OA
HETATM   47  H   UNL     1       0.347  -3.556  15.542  1.00  0.00     0.210 HD
ENDBRANCH   6  46
BRANCH   5  48
HETATM   48  N   UNL     1       2.200  -0.718  16.598  1.00  0.00     0.128 N 
HETATM   49  H   UNL     1       2.525   0.250  16.630  1.00  0.00     0.320 HD
HETATM   50  C   UNL     1       2.069  -1.176  17.998  1.00  0.00     0.407 C 
HETATM   51  O   UNL     1       1.326  -0.222  18.768  1.00  0.00    -0.201 OA
BRANCH  50  52
HETATM   52  C   UNL     1       3.478  -1.338  18.611  1.00  0.00     0.175 C 
BRANCH  52  53
HETATM   53  N   UNL     1       3.672  -2.710  19.136  1.00  0.00    -0.228 NA
HETATM   54 CL   UNL     1       2.347  -3.129  20.108  1.00  0.00    -0.022 Cl
HETATM   55  C   UNL     1       3.700  -3.653  17.998  1.00  0.00     0.130 C 
ENDBRANCH  52  53
ENDBRANCH  50  52
ENDBRANCH   5  48
BRANCH   4  56
HETATM   56  O   UNL     1       0.368   1.566  16.283  1.00  0.00    -0.348 OA
BRANCH  56  57
HETATM   57  C   UNL     1       0.771   2.874  15.834  1.00  0.00     0.186 C 
HETATM   58  C   UNL     1       1.958   2.677  14.862  1.00  0.00     0.187 C 
HETATM   59  C   UNL     1       2.203   3.988  14.077  1.00  0.00     0.303 C 
HETATM   60  C   UNL     1       0.936   4.303  13.230  1.00  0.00     0.296 C 
HETATM   61  O   UNL     1      -0.242   3.596  13.686  1.00  0.00    -0.349 OA
HETATM   62  C   UNL     1      -0.416   3.579  15.120  1.00  0.00     0.179 C 
BRANCH  58  63
HETATM   63  O   UNL     1       3.128   2.236  15.565  1.00  0.00    -0.391 OA
HETATM   64  H   UNL     1       3.172   1.264  15.445  1.00  0.00     0.210 HD
ENDBRANCH  58  63
BRANCH  59  65
HETATM   65  N   UNL     1       2.565   5.101  14.985  1.00  0.00     0.090 N 
HETATM   66  H   UNL     1       3.387   5.561  14.589  1.00  0.00     0.313 HD
HETATM   67  H   UNL     1       2.877   4.693  15.866  1.00  0.00     0.313 HD
ENDBRANCH  59  65
BRANCH  60  68
HETATM   68  O   UNL     1       0.689   5.723  13.173  1.00  0.00    -0.348 OA
BRANCH  68  69
HETATM   69  C   UNL     1       0.250   6.272  11.907  1.00  0.00     0.186 C 
HETATM   70  C   UNL     1       1.006   7.576  11.531  1.00  0.00     0.176 C 
HETATM   71  O   UNL     1       0.356   8.223  10.417  1.00  0.00    -0.379 OA
HETATM   72  C   UNL     1       0.259   7.367   9.263  1.00  0.00     0.206 C 
HETATM   73  C   UNL     1      -0.590   6.104   9.560  1.00  0.00     0.278 C 
HETATM   74  C   UNL     1       0.085   5.304  10.703  1.00  0.00     0.185 C 
BRANCH  70  75
HETATM   75  C   UNL     1       2.530   7.423  11.298  1.00  0.00     0.198 C 
BRANCH  75  76
HETATM   76  O   UNL     1       3.162   7.030  12.521  1.00  0.00    -0.398 OA
HETATM   77  H   UNL     1       3.985   7.561  12.562  1.00  0.00     0.209 HD
ENDBRANCH  75  76
ENDBRANCH  70  75
BRANCH  73  78
HETATM   78  N   UNL     1      -0.742   5.223   8.375  1.00  0.00     0.126 N 
HETATM   79  H   UNL     1      -1.730   5.278   8.116  1.00  0.00     0.320 HD
HETATM   80  C   UNL     1       0.033   5.709   7.209  1.00  0.00     0.407 C 
HETATM   81  O   UNL     1       1.351   5.151   7.238  1.00  0.00    -0.201 OA
BRANCH  80  82
HETATM   82  C   UNL     1      -0.663   5.253   5.906  1.00  0.00     0.175 C 
BRANCH  82  83
HETATM   83  N   UNL     1      -0.469   3.804   5.666  1.00  0.00    -0.228 NA
HETATM   84  C   UNL     1      -1.743   3.108   5.940  1.00  0.00     0.130 C 
HETATM   85 CL   UNL     1      -0.096   3.554   4.030  1.00  0.00    -0.022 Cl
ENDBRANCH  82  83
ENDBRANCH  80  82
ENDBRANCH  73  78
BRANCH  74  86
HETATM   86  O   UNL     1       1.323   4.750  10.230  1.00  0.00    -0.391 OA
HETATM   87  H   UNL     1       2.007   5.428  10.411  1.00  0.00     0.210 HD
ENDBRANCH  74  86
ENDBRANCH  68  69
ENDBRANCH  60  68
BRANCH  62  88
HETATM   88  C   UNL     1      -0.684   4.994  15.692  1.00  0.00     0.198 C 
BRANCH  88  89
HETATM   89  O   UNL     1      -1.751   5.624  14.978  1.00  0.00    -0.398 OA
HETATM   90  H   UNL     1      -2.545   5.486  15.538  1.00  0.00     0.209 HD
ENDBRANCH  88  89
ENDBRANCH  62  88
ENDBRANCH  56  57
ENDBRANCH   4  56
TORSDOF 36
ENDMDL
MODEL 9
REMARK VINA RESULT:      -7.1      5.519     10.893
REMARK WARNING: 32 MAX_TORS EXCEEDED!!!
REMARK  36 active torsions:
REMARK  status: ('A' for Active; 'I' for Inactive)
REMARK    1  A    between atoms: C_1  and  O_66 
REMARK    2  A    between atoms: C_2  and  O_47 
REMARK    3  A    between atoms: C_4  and  O_40 
REMARK    4  A    between atoms: C_5  and  O_15 
REMARK    5  A    between atoms: C_7  and  C_17 
REMARK    6  A    between atoms: C_8  and  O_9 
REMARK    7  A    between atoms: C_11  and  N_12 
REMARK    8  A    between atoms: N_12  and  C_20 
REMARK    9  A    between atoms: C_14  and  O_15 
REMARK   10  A    between atoms: C_17  and  O_18 
REMARK   11  A    between atoms: C_20  and  O_21 
REMARK   12  A    between atoms: C_20  and  C_23 
REMARK   13  A    between atoms: C_23  and  N_24 
REMARK   14  A    between atoms: C_27  and  C_28 
REMARK   15  A    between atoms: C_28  and  O_29 
REMARK   16  A    between atoms: C_32  and  O_40 
REMARK   17  A    between atoms: C_33  and  N_34 
REMARK   18  A    between atoms: C_37  and  O_38 
REMARK   19  A    between atoms: C_41  and  C_42 
REMARK   20  A    between atoms: C_42  and  O_43 
REMARK   21  A    between atoms: C_46  and  O_47 
REMARK   22  A    between atoms: C_48  and  N_49 
REMARK       I    between atoms: N_49  and  C_51 
REMARK   23  A    between atoms: C_51  and  C_52 
REMARK   24  A    between atoms: C_52  and  N_54 
REMARK   25  A    between atoms: C_56  and  O_57 
REMARK   26  A    between atoms: C_59  and  O_60 
REMARK   27  A    between atoms: C_62  and  N_63 
REMARK   28  A    between atoms: C_65  and  O_66 
REMARK   29  A    between atoms: C_68  and  C_69 
REMARK   30  A    between atoms: C_69  and  O_70 
REMARK   31  A    between atoms: C_73  and  C_74 
REMARK   32  A    between atoms: C_74  and  O_75 
REMARK   33  A    between atoms: C_79  and  O_80 
REMARK   34  A    between atoms: C_82  and  N_83 
REMARK       I    between atoms: N_83  and  C_85 
REMARK   35  A    between atoms: C_85  and  C_87 
REMARK   36  A    between atoms: C_87  and  N_88 
ROOT
HETATM    1  C   UNL     1      -1.428   0.705  14.141  1.00  0.00     0.186 C 
HETATM    2  C   UNL     1      -2.259   1.728  14.959  1.00  0.00     0.179 C 
HETATM    3  O   UNL     1      -1.408   2.458  15.859  1.00  0.00    -0.349 OA
HETATM    4  C   UNL     1      -0.486   3.276  15.110  1.00  0.00     0.297 C 
HETATM    5  C   UNL     1       0.442   2.407  14.223  1.00  0.00     0.309 C 
HETATM    6  C   UNL     1      -0.424   1.522  13.294  1.00  0.00     0.188 C 
ENDROOT
BRANCH   1   7
HETATM    7  O   UNL     1      -0.707  -0.199  15.003  1.00  0.00    -0.348 OA
BRANCH   7   8
HETATM    8  C   UNL     1      -0.735  -1.546  14.499  1.00  0.00     0.296 C 
HETATM    9  O   UNL     1      -1.996  -2.113  14.882  1.00  0.00    -0.349 OA
HETATM   10  C   UNL     1      -2.241  -3.306  14.110  1.00  0.00     0.179 C 
HETATM   11  C   UNL     1      -0.973  -4.207  13.989  1.00  0.00     0.186 C 
HETATM   12  C   UNL     1       0.011  -3.904  15.151  1.00  0.00     0.187 C 
HETATM   13  C   UNL     1       0.405  -2.403  15.111  1.00  0.00     0.303 C 
BRANCH  10  14
HETATM   14  C   UNL     1      -3.445  -4.036  14.756  1.00  0.00     0.198 C 
BRANCH  14  15
HETATM   15  O   UNL     1      -4.357  -3.077  15.305  1.00  0.00    -0.398 OA
HETATM   16  H   UNL     1      -4.330  -2.320  14.683  1.00  0.00     0.209 HD
ENDBRANCH  14  15
ENDBRANCH  10  14
BRANCH  11  17
HETATM   17  O   UNL     1      -1.343  -5.600  13.934  1.00  0.00    -0.348 OA
BRANCH  17  18
HETATM   18  C   UNL     1      -1.789  -5.995  12.623  1.00  0.00     0.296 C 
HETATM   19  C   UNL     1      -0.581  -6.481  11.782  1.00  0.00     0.307 C 
HETATM   20  C   UNL     1      -0.017  -7.803  12.360  1.00  0.00     0.163 C 
HETATM   21  C   UNL     1      -1.149  -8.770  12.555  1.00  0.00     0.057 C 
HETATM   22  C   UNL     1      -2.448  -8.284  13.143  1.00  0.00     0.155 C 
HETATM   23  O   UNL     1      -2.841  -6.988  12.641  1.00  0.00    -0.351 OA
BRANCH  19  24
HETATM   24  N   UNL     1      -1.024  -6.685  10.379  1.00  0.00     0.125 N 
HETATM   25  H   UNL     1      -1.824  -7.321  10.393  1.00  0.00     0.320 HD
BRANCH  24  26
HETATM   26  C   UNL     1      -1.497  -5.426   9.756  1.00  0.00     0.369 C 
BRANCH  26  27
HETATM   27  O   UNL     1      -2.877  -5.554   9.384  1.00  0.00    -0.367 OA
HETATM   28  H   UNL     1      -2.953  -6.443   8.977  1.00  0.00     0.212 HD
ENDBRANCH  26  27
BRANCH  26  29
HETATM   29  C   UNL     1      -0.599  -5.129   8.531  1.00  0.00     0.171 C 
BRANCH  29  30
HETATM   30  N   UNL     1       0.034  -6.362   8.003  1.00  0.00    -0.228 NA
HETATM   31  C   UNL     1      -0.290  -6.496   6.567  1.00  0.00     0.130 C 
HETATM   32 CL   UNL     1       1.722  -6.218   8.109  1.00  0.00    -0.022 Cl
ENDBRANCH  29  30
ENDBRANCH  26  29
ENDBRANCH  24  26
ENDBRANCH  19  24
BRANCH  20  33
HETATM   33  O   UNL     1       0.670  -7.574  13.598  1.00  0.00    -0.393 OA
HETATM   34  H   UNL     1       1.535  -7.189  13.343  1.00  0.00     0.210 HD
ENDBRANCH  20  33
BRANCH  22  35
HETATM   35  C   UNL     1      -2.411  -8.335  14.690  1.00  0.00     0.196 C 
BRANCH  35  36
HETATM   36  O   UNL     1      -3.455  -7.526  15.245  1.00  0.00    -0.398 OA
HETATM   37  H   UNL     1      -3.295  -6.622  14.901  1.00  0.00     0.209 HD
ENDBRANCH  35  36
ENDBRANCH  22  35
ENDBRANCH  17  18
ENDBRANCH  11  17
BRANCH  12  38
HETATM   38  O   UNL     1      -0.581  -4.210  16.422  1.00  0.00    -0.391 OA
HETATM   39  H   UNL     1      -1.537  -4.017  16.319  1.00  0.00     0.210 HD
ENDBRANCH  12  38
BRANCH  13  40
HETATM   40  N   UNL     1       1.643  -2.223  14.326  1.00  0.00     0.090 N 
HETATM   41  H   UNL     1       2.375  -2.781  14.770  1.00  0.00     0.313 HD
HETATM   42  H   UNL     1       1.484  -2.619  13.397  1.00  0.00     0.313 HD
ENDBRANCH  13  40
ENDBRANCH   7   8
ENDBRANCH   1   7
BRANCH   2  43
HETATM   43  C   UNL     1      -3.427   1.077  15.743  1.00  0.00     0.198 C 
BRANCH  43  44
HETATM   44  O   UNL     1      -3.844  -0.182  15.192  1.00  0.00    -0.398 OA
HETATM   45  H   UNL     1      -4.504   0.031  14.503  1.00  0.00     0.209 HD
ENDBRANCH  43  44
ENDBRANCH   2  43
BRANCH   6  46
HETATM   46  O   UNL     1       0.385   0.662  12.479  1.00  0.00    -0.391 OA
HETATM   47  H   UNL     1      -0.206   0.321  11.775  1.00  0.00     0.210 HD
ENDBRANCH   6  46
BRANCH   5  48
HETATM   48  N   UNL     1       1.318   3.261  13.380  1.00  0.00     0.128 N 
HETATM   49  H   UNL     1       1.286   4.222  13.727  1.00  0.00     0.320 HD
HETATM   50  C   UNL     1       2.727   2.817  13.467  1.00  0.00     0.407 C 
HETATM   51  O   UNL     1       3.261   3.103  14.766  1.00  0.00    -0.201 OA
BRANCH  50  52
HETATM   52  C   UNL     1       3.558   3.563  12.400  1.00  0.00     0.175 C 
BRANCH  52  53
HETATM   53  N   UNL     1       2.992   4.905  12.129  1.00  0.00    -0.228 NA
HETATM   54 CL   UNL     1       4.098   6.089  12.626  1.00  0.00    -0.022 Cl
HETATM   55  C   UNL     1       2.808   5.056  10.670  1.00  0.00     0.130 C 
ENDBRANCH  52  53
ENDBRANCH  50  52
ENDBRANCH   5  48
BRANCH   4  56
HETATM   56  O   UNL     1       0.325   3.996  16.054  1.00  0.00    -0.348 OA
BRANCH  56  57
HETATM   57  C   UNL     1       0.201   5.417  15.849  1.00  0.00     0.186 C 
HETATM   58  C   UNL     1       1.612   5.955  15.516  1.00  0.00     0.187 C 
HETATM   59  C   UNL     1       1.495   7.387  14.941  1.00  0.00     0.303 C 
HETATM   60  C   UNL     1       0.681   7.323  13.615  1.00  0.00     0.296 C 
HETATM   61  O   UNL     1      -0.093   6.106  13.482  1.00  0.00    -0.349 OA
HETATM   62  C   UNL     1      -0.787   5.700  14.682  1.00  0.00     0.179 C 
BRANCH  58  63
HETATM   63  O   UNL     1       2.466   5.900  16.668  1.00  0.00    -0.391 OA
HETATM   64  H   UNL     1       3.321   5.532  16.360  1.00  0.00     0.210 HD
ENDBRANCH  58  63
BRANCH  59  65
HETATM   65  N   UNL     1       0.896   8.317  15.925  1.00  0.00     0.090 N 
HETATM   66  H   UNL     1       1.612   9.004  16.168  1.00  0.00     0.313 HD
HETATM   67  H   UNL     1       0.719   7.790  16.781  1.00  0.00     0.313 HD
ENDBRANCH  59  65
BRANCH  60  68
HETATM   68  O   UNL     1      -0.163   8.483  13.468  1.00  0.00    -0.348 OA
BRANCH  68  69
HETATM   69  C   UNL     1      -0.268   9.066  12.146  1.00  0.00     0.186 C 
HETATM   70  C   UNL     1      -0.259  10.619  12.180  1.00  0.00     0.176 C 
HETATM   71  O   UNL     1      -0.633  11.146  10.890  1.00  0.00    -0.379 OA
HETATM   72  C   UNL     1       0.225  10.676   9.832  1.00  0.00     0.206 C 
HETATM   73  C   UNL     1       0.157   9.135   9.685  1.00  0.00     0.278 C 
HETATM   74  C   UNL     1       0.621   8.484  11.013  1.00  0.00     0.185 C 
BRANCH  70  75
HETATM   75  C   UNL     1       1.043  11.270  12.710  1.00  0.00     0.198 C 
BRANCH  75  76
HETATM   76  O   UNL     1       1.476  10.580  13.888  1.00  0.00    -0.398 OA
HETATM   77  H   UNL     1       0.650  10.317  14.343  1.00  0.00     0.209 HD
ENDBRANCH  75  76
ENDBRANCH  70  75
BRANCH  73  78
HETATM   78  N   UNL     1       1.001   8.627   8.574  1.00  0.00     0.126 N 
HETATM   79  H   UNL     1       1.703   8.028   9.013  1.00  0.00     0.320 HD
HETATM   80  C   UNL     1       0.238   7.775   7.632  1.00  0.00     0.407 C 
HETATM   81  O   UNL     1      -0.331   8.585   6.598  1.00  0.00    -0.201 OA
BRANCH  80  82
HETATM   82  C   UNL     1       1.195   6.751   6.978  1.00  0.00     0.175 C 
BRANCH  82  83
HETATM   83  N   UNL     1       0.735   5.360   7.201  1.00  0.00    -0.228 NA
HETATM   84  C   UNL     1      -0.472   5.396   8.052  1.00  0.00     0.130 C 
HETATM   85 CL   UNL     1       0.287   4.677   5.714  1.00  0.00    -0.022 Cl
ENDBRANCH  82  83
ENDBRANCH  80  82
ENDBRANCH  73  78
BRANCH  74  86
HETATM   86  O   UNL     1       2.026   8.723  11.195  1.00  0.00    -0.391 OA
HETATM   87  H   UNL     1       2.422   7.849  11.394  1.00  0.00     0.210 HD
ENDBRANCH  74  86
ENDBRANCH  68  69
ENDBRANCH  60  68
BRANCH  62  88
HETATM   88  C   UNL     1      -1.892   6.708  15.086  1.00  0.00     0.198 C 
BRANCH  88  89
HETATM   89  O   UNL     1      -1.772   7.048  16.470  1.00  0.00    -0.398 OA
HETATM   90  H   UNL     1      -2.171   7.940  16.546  1.00  0.00     0.209 HD
ENDBRANCH  88  89
ENDBRANCH  62  88
ENDBRANCH  56  57
ENDBRANCH   4  56
TORSDOF 36
ENDMDL
