MODEL 1
REMARK VINA RESULT:      -7.2      0.000      0.000
REMARK WARNING: 32 MAX_TORS EXCEEDED!!!
REMARK  58 active torsions:
REMARK  status: ('A' for Active; 'I' for Inactive)
REMARK    1  A    between atoms: C_1  and  O_30 
REMARK    2  A    between atoms: C_2  and  C_6 
REMARK    3  A    between atoms: C_3  and  O_9 
REMARK    4  A    between atoms: C_4  and  N_11 
REMARK    5  A    between atoms: C_5  and  O_12 
REMARK    6  A    between atoms: C_6  and  O_7 
REMARK    7  A    between atoms: N_11  and  C_118 
REMARK    8  A    between atoms: O_12  and  C_20 
REMARK    9  A    between atoms: O_14  and  C_18 
REMARK   10  A    between atoms: C_16  and  C_23 
REMARK   11  A    between atoms: O_17  and  C_23 
REMARK   12  A    between atoms: O_19  and  C_22 
REMARK   13  A    between atoms: O_19  and  C_42 
REMARK   14  A    between atoms: N_21  and  C_24 
REMARK   15  A    between atoms: O_26  and  C_29 
REMARK   16  A    between atoms: C_28  and  C_34 
REMARK   17  A    between atoms: O_30  and  C_33 
REMARK   18  A    between atoms: C_31  and  O_53 
REMARK   19  A    between atoms: N_32  and  C_35 
REMARK   20  A    between atoms: C_34  and  O_65 
REMARK   21  A    between atoms: O_37  and  C_41 
REMARK   22  A    between atoms: C_39  and  C_45 
REMARK   23  A    between atoms: O_40  and  C_45 
REMARK   24  A    between atoms: N_43  and  C_46 
REMARK   25  A    between atoms: O_48  and  C_52 
REMARK   26  A    between atoms: C_50  and  C_57 
REMARK   27  A    between atoms: O_51  and  C_57 
REMARK   28  A    between atoms: O_53  and  C_56 
REMARK   29  A    between atoms: N_55  and  C_58 
REMARK   30  A    between atoms: N_55  and  C_71 
REMARK   31  A    between atoms: C_71  and  C_73 
REMARK   32  A    between atoms: C_73  and  C_74 
REMARK   33  A    between atoms: C_73  and  N_87 
REMARK   34  A    between atoms: C_74  and  C_75 
REMARK   35  A    between atoms: C_75  and  C_76 
REMARK   36  A    between atoms: C_75  and  N_101 
REMARK   37  A    between atoms: C_76  and  C_77 
REMARK   38  A    between atoms: C_77  and  C_78 
REMARK   39  A    between atoms: C_77  and  N_91 
REMARK   40  A    between atoms: C_78  and  C_79 
REMARK   41  A    between atoms: C_79  and  C_80 
REMARK   42  A    between atoms: C_79  and  N_106 
REMARK   43  A    between atoms: C_80  and  C_81 
REMARK   44  A    between atoms: C_81  and  N_96 
REMARK   45  A    between atoms: N_113  and  C_119 
REMARK   46  A    between atoms: C_118  and  C_119 
REMARK   47  A    between atoms: C_119  and  C_126 
REMARK   48  A    between atoms: N_122  and  C_128 
REMARK   49  A    between atoms: C_124  and  C_128 
REMARK   50  A    between atoms: C_124  and  C_130 
REMARK   51  A    between atoms: N_125  and  C_135 
REMARK   52  A    between atoms: C_126  and  C_130 
REMARK   53  A    between atoms: C_128  and  C_132 
REMARK   54  A    between atoms: N_129  and  C_130 
REMARK   55  A    between atoms: C_132  and  C_137 
REMARK   56  A    between atoms: C_135  and  C_136 
REMARK   57  A    between atoms: C_136  and  C_137 
REMARK   58  A    between atoms: C_137  and  N_140 
ROOT
HETATM    1  C   UNL     1       2.213   6.971  10.303  1.00  0.00     0.186 C 
HETATM    2  C   UNL     1       2.087   5.563   9.604  1.00  0.00     0.179 C 
HETATM    3  C   UNL     1       0.953   7.886  10.185  1.00  0.00     0.188 C 
HETATM    4  C   UNL     1      -0.378   7.087  10.075  1.00  0.00     0.306 C 
HETATM    5  C   UNL     1      -0.071   6.209   8.819  1.00  0.00     0.296 C 
HETATM    6  O   UNL     1       0.749   5.134   9.230  1.00  0.00    -0.349 OA
ENDROOT
BRANCH   1   7
HETATM    7  O   UNL     1       2.575   6.790  11.686  1.00  0.00    -0.348 OA
BRANCH   7   8
HETATM    8  C   UNL     1       2.532   5.424  12.140  1.00  0.00     0.296 C 
HETATM    9  O   UNL     1       1.272   5.235  12.790  1.00  0.00    -0.349 OA
HETATM   10  C   UNL     1       1.063   3.934  13.379  1.00  0.00     0.179 C 
HETATM   11  C   UNL     1       2.251   3.490  14.261  1.00  0.00     0.186 C 
HETATM   12  C   UNL     1       3.229   4.658  14.474  1.00  0.00     0.187 C 
HETATM   13  C   UNL     1       3.734   5.141  13.107  1.00  0.00     0.303 C 
BRANCH  10  14
HETATM   14  C   UNL     1       0.734   2.891  12.294  1.00  0.00     0.198 C 
BRANCH  14  15
HETATM   15  O   UNL     1       1.645   1.795  12.319  1.00  0.00    -0.398 OA
HETATM   16  H   UNL     1       2.531   2.144  12.109  1.00  0.00     0.209 HD
ENDBRANCH  14  15
ENDBRANCH  10  14
BRANCH  11  17
HETATM   17  O   UNL     1       1.835   3.045  15.555  1.00  0.00    -0.348 OA
BRANCH  17  18
HETATM   18  C   UNL     1       2.432   1.834  16.003  1.00  0.00     0.296 C 
HETATM   19  O   UNL     1       2.757   1.024  14.878  1.00  0.00    -0.351 OA
HETATM   20  C   UNL     1       2.566  -0.392  15.025  1.00  0.00     0.150 C 
HETATM   21  C   UNL     1       2.958  -0.870  16.420  1.00  0.00     0.068 C 
HETATM   22  C   UNL     1       2.218  -0.114  17.532  1.00  0.00     0.158 C 
HETATM   23  C   UNL     1       1.499   1.177  17.060  1.00  0.00     0.303 C 
BRANCH  20  24
HETATM   24  C   UNL     1       3.385  -1.114  13.941  1.00  0.00     0.196 C 
BRANCH  24  25
HETATM   25  O   UNL     1       2.671  -1.098  12.706  1.00  0.00    -0.398 OA
HETATM   26  H   UNL     1       3.078  -1.764  12.126  1.00  0.00     0.209 HD
ENDBRANCH  24  25
ENDBRANCH  20  24
BRANCH  22  27
HETATM   27  O   UNL     1       1.280  -0.995  18.162  1.00  0.00    -0.393 OA
HETATM   28  H   UNL     1       0.808  -0.435  18.815  1.00  0.00     0.210 HD
ENDBRANCH  22  27
BRANCH  23  29
HETATM   29  N   UNL     1       0.113   0.814  16.646  1.00  0.00     0.097 N 
HETATM   30  H   UNL     1       0.121   0.756  15.623  1.00  0.00     0.316 HD
BRANCH  29  31
HETATM   31  C   UNL     1      -0.946   1.794  16.944  1.00  0.00     0.296 C 
BRANCH  31  32
HETATM   32  C   UNL     1      -1.110   2.212  18.463  1.00  0.00     0.120 C 
BRANCH  32  33
HETATM   33  C   UNL     1      -2.335   1.451  19.083  1.00  0.00     0.053 C 
BRANCH  33  34
HETATM   34  C   UNL     1      -3.001   0.224  18.339  1.00  0.00     0.094 C 
BRANCH  34  35
HETATM   35  C   UNL     1      -2.507  -1.121  19.055  1.00  0.00     0.051 C 
BRANCH  35  36
HETATM   36  C   UNL     1      -2.487  -2.529  18.365  1.00  0.00     0.094 C 
BRANCH  36  37
HETATM   37  C   UNL     1      -2.582  -2.468  16.799  1.00  0.00     0.051 C 
BRANCH  37  38
HETATM   38  C   UNL     1      -3.782  -3.236  16.164  1.00  0.00     0.094 C 
BRANCH  38  39
HETATM   39  C   UNL     1      -3.710  -3.273  14.596  1.00  0.00     0.051 C 
BRANCH  39  40
HETATM   40  C   UNL     1      -2.363  -3.284  13.821  1.00  0.00     0.089 C 
HETATM   41  C   UNL     1      -2.529  -4.092  12.522  1.00  0.00     0.033 C 
BRANCH  40  42
HETATM   42  N   UNL     1      -1.801  -1.986  13.478  1.00  0.00    -0.334 N 
HETATM   43  C   UNL     1      -0.602  -1.503  13.933  1.00  0.00     0.210 A 
HETATM   44  N   UNL     1      -0.343  -0.314  13.441  1.00  0.00    -0.254 NA
HETATM   45  C   UNL     1      -1.407  -0.025  12.627  1.00  0.00     0.150 A 
HETATM   46  C   UNL     1      -2.319  -1.058  12.619  1.00  0.00     0.082 A 
ENDBRANCH  40  42
ENDBRANCH  39  40
ENDBRANCH  38  39
BRANCH  38  47
HETATM   47  N   UNL     1      -4.180  -4.471  16.824  1.00  0.00    -0.339 N 
HETATM   48  C   UNL     1      -3.506  -5.662  16.792  1.00  0.00     0.209 C 
HETATM   49  N   UNL     1      -4.204  -6.634  17.327  1.00  0.00    -0.254 NA
HETATM   50  C   UNL     1      -5.294  -6.033  17.876  1.00  0.00     0.142 C 
HETATM   51  C   UNL     1      -5.278  -4.671  17.648  1.00  0.00     0.026 C 
HETATM   52  C   UNL     1      -6.184  -3.644  18.217  1.00  0.00     0.070 C 
ENDBRANCH  38  47
ENDBRANCH  37  38
ENDBRANCH  36  37
BRANCH  36  53
HETATM   53  N   UNL     1      -1.274  -3.285  18.696  1.00  0.00    -0.345 N 
HETATM   54  C   UNL     1      -0.390  -3.834  17.810  1.00  0.00     0.209 A 
HETATM   55  N   UNL     1       0.663  -4.324  18.423  1.00  0.00    -0.255 NA
HETATM   56  C   UNL     1       0.465  -4.075  19.751  1.00  0.00     0.135 A 
HETATM   57  C   UNL     1      -0.715  -3.399  19.943  1.00  0.00     0.111 A 
ENDBRANCH  36  53
ENDBRANCH  35  36
ENDBRANCH  34  35
BRANCH  34  58
HETATM   58  N   UNL     1      -4.390   0.394  17.894  1.00  0.00    -0.339 N 
HETATM   59  C   UNL     1      -4.734   1.131  16.780  1.00  0.00     0.209 C 
HETATM   60  N   UNL     1      -6.024   1.228  16.589  1.00  0.00    -0.254 NA
HETATM   61  C   UNL     1      -6.571   0.658  17.686  1.00  0.00     0.142 C 
HETATM   62  C   UNL     1      -5.596   0.248  18.579  1.00  0.00     0.026 C 
HETATM   63  C   UNL     1      -5.867  -0.159  19.979  1.00  0.00     0.070 C 
ENDBRANCH  34  58
ENDBRANCH  33  34
ENDBRANCH  32  33
BRANCH  32  64
HETATM   64  N   UNL     1      -1.015   3.645  18.755  1.00  0.00    -0.344 N 
HETATM   65  C   UNL     1      -1.742   4.419  19.622  1.00  0.00     0.111 A 
HETATM   66  C   UNL     1      -1.265   5.700  19.494  1.00  0.00     0.135 A 
HETATM   67  N   UNL     1      -0.295   5.751  18.542  1.00  0.00    -0.255 NA
HETATM   68  C   UNL     1      -0.169   4.517  18.116  1.00  0.00     0.209 A 
ENDBRANCH  32  64
ENDBRANCH  31  32
ENDBRANCH  29  31
ENDBRANCH  23  29
ENDBRANCH  17  18
ENDBRANCH  11  17
BRANCH  12  69
HETATM   69  O   UNL     1       2.625   5.737  15.206  1.00  0.00    -0.391 OA
HETATM   70  H   UNL     1       3.168   6.536  15.051  1.00  0.00     0.210 HD
ENDBRANCH  12  69
BRANCH  13  71
HETATM   71  N   UNL     1       4.662   6.276  13.290  1.00  0.00     0.090 N 
HETATM   72  H   UNL     1       4.150   7.102  12.967  1.00  0.00     0.313 HD
HETATM   73  H   UNL     1       5.387   6.151  12.570  1.00  0.00     0.313 HD
ENDBRANCH  13  71
ENDBRANCH   7   8
ENDBRANCH   1   7
BRANCH   2  74
HETATM   74  C   UNL     1       3.003   5.524   8.354  1.00  0.00     0.198 C 
BRANCH  74  75
HETATM   75  O   UNL     1       2.369   4.842   7.279  1.00  0.00    -0.398 OA
HETATM   76  H   UNL     1       1.717   5.446   6.881  1.00  0.00     0.209 HD
ENDBRANCH  74  75
ENDBRANCH   2  74
BRANCH   3  77
HETATM   77  O   UNL     1       0.913   8.896  11.198  1.00  0.00    -0.391 OA
HETATM   78  H   UNL     1       1.118   8.481  12.054  1.00  0.00     0.210 HD
ENDBRANCH   3  77
BRANCH   4  79
HETATM   79  N   UNL     1      -0.686   6.531  11.430  1.00  0.00     0.097 N 
HETATM   80  H   UNL     1       0.145   6.576  12.012  1.00  0.00     0.316 HD
BRANCH  79  81
HETATM   81  C   UNL     1      -1.882   6.996  12.153  1.00  0.00     0.296 C 
BRANCH  81  82
HETATM   82  C   UNL     1      -1.669   7.424  13.702  1.00  0.00     0.120 C 
BRANCH  82  83
HETATM   83  N   UNL     1      -2.282   6.494  14.649  1.00  0.00    -0.344 N 
HETATM   84  C   UNL     1      -2.903   6.777  15.839  1.00  0.00     0.111 A 
HETATM   85  C   UNL     1      -3.271   5.559  16.366  1.00  0.00     0.135 A 
HETATM   86  N   UNL     1      -2.857   4.542  15.555  1.00  0.00    -0.255 NA
HETATM   87  C   UNL     1      -2.240   5.127  14.556  1.00  0.00     0.209 A 
ENDBRANCH  82  83
BRANCH  82  88
HETATM   88  C   UNL     1      -0.170   7.813  13.980  1.00  0.00     0.053 C 
BRANCH  88  89
HETATM   89  C   UNL     1       0.351   9.192  14.576  1.00  0.00     0.094 C 
BRANCH  89  90
HETATM   90  C   UNL     1      -0.755  10.165  15.199  1.00  0.00     0.051 C 
BRANCH  90  91
HETATM   91  C   UNL     1      -1.429  11.299  14.295  1.00  0.00     0.094 C 
BRANCH  91  92
HETATM   92  N   UNL     1      -2.895  11.282  14.366  1.00  0.00    -0.345 N 
HETATM   93  C   UNL     1      -3.706  12.309  14.773  1.00  0.00     0.111 A 
HETATM   94  C   UNL     1      -4.955  11.751  14.911  1.00  0.00     0.135 A 
HETATM   95  N   UNL     1      -4.921  10.417  14.618  1.00  0.00    -0.255 NA
HETATM   96  C   UNL     1      -3.678  10.162  14.281  1.00  0.00     0.209 A 
ENDBRANCH  91  92
BRANCH  91  97
HETATM   97  C   UNL     1      -1.036  11.276  12.767  1.00  0.00     0.051 C 
BRANCH  97  98
HETATM   98  C   UNL     1      -0.358  12.567  12.161  1.00  0.00     0.094 C 
BRANCH  98  99
HETATM   99  C   UNL     1       1.226  12.491  12.285  1.00  0.00     0.051 C 
BRANCH  99 100
HETATM  100  C   UNL     1       2.094  13.628  12.911  1.00  0.00     0.089 C 
HETATM  101  C   UNL     1       1.247  14.458  13.894  1.00  0.00     0.033 C 
BRANCH 100 102
HETATM  102  N   UNL     1       3.293  13.197  13.621  1.00  0.00    -0.334 N 
HETATM  103  C   UNL     1       4.528  12.949  13.085  1.00  0.00     0.082 A 
HETATM  104  C   UNL     1       5.306  12.572  14.157  1.00  0.00     0.150 A 
HETATM  105  N   UNL     1       4.572  12.546  15.313  1.00  0.00    -0.254 NA
HETATM  106  C   UNL     1       3.365  12.931  14.963  1.00  0.00     0.210 A 
ENDBRANCH 100 102
ENDBRANCH  99 100
ENDBRANCH  98  99
BRANCH  98 107
HETATM  107  N   UNL     1      -0.872  13.128  10.918  1.00  0.00    -0.339 N 
HETATM  108  C   UNL     1      -1.671  14.229  10.778  1.00  0.00     0.209 C 
HETATM  109  N   UNL     1      -2.423  14.145   9.705  1.00  0.00    -0.254 NA
HETATM  110  C   UNL     1      -1.906  13.110   8.990  1.00  0.00     0.142 C 
HETATM  111  C   UNL     1      -0.839  12.546   9.660  1.00  0.00     0.026 C 
HETATM  112  C   UNL     1       0.183  11.629   9.119  1.00  0.00     0.070 C 
ENDBRANCH  98 107
ENDBRANCH  97  98
ENDBRANCH  91  97
ENDBRANCH  90  91
ENDBRANCH  89  90
BRANCH  89 113
HETATM  113  N   UNL     1       1.715   9.228  15.135  1.00  0.00    -0.339 N 
HETATM  114  C   UNL     1       2.260   9.053  16.392  1.00  0.00     0.026 C 
HETATM  115  C   UNL     1       3.631   9.157  16.216  1.00  0.00     0.142 C 
HETATM  116  C   UNL     1       1.629   8.755  17.691  1.00  0.00     0.070 C 
HETATM  117  N   UNL     1       3.959   9.188  14.901  1.00  0.00    -0.254 NA
HETATM  118  C   UNL     1       2.813   9.144  14.294  1.00  0.00     0.209 C 
ENDBRANCH  89 113
ENDBRANCH  88  89
ENDBRANCH  82  88
ENDBRANCH  81  82
ENDBRANCH  79  81
ENDBRANCH   4  79
BRANCH   5 119
HETATM  119  O   UNL     1      -1.249   5.839   8.086  1.00  0.00    -0.348 OA
BRANCH 119 120
HETATM  120  C   UNL     1      -1.278   6.410   6.740  1.00  0.00     0.186 C 
HETATM  121  C   UNL     1       0.102   6.968   6.308  1.00  0.00     0.179 C 
HETATM  122  O   UNL     1       0.717   6.197   5.263  1.00  0.00    -0.349 OA
HETATM  123  C   UNL     1      -0.034   6.043   4.054  1.00  0.00     0.296 C 
HETATM  124  C   UNL     1      -1.557   5.776   4.304  1.00  0.00     0.303 C 
HETATM  125  C   UNL     1      -1.810   5.341   5.764  1.00  0.00     0.187 C 
BRANCH 121 126
HETATM  126  C   UNL     1       0.012   8.442   5.862  1.00  0.00     0.198 C 
BRANCH 126 127
HETATM  127  O   UNL     1      -0.697   9.229   6.814  1.00  0.00    -0.398 OA
HETATM  128  H   UNL     1      -0.079   9.458   7.536  1.00  0.00     0.209 HD
ENDBRANCH 126 127
ENDBRANCH 121 126
BRANCH 123 129
HETATM  129  O   UNL     1       0.545   4.947   3.335  1.00  0.00    -0.348 OA
BRANCH 129 130
HETATM  130  C   UNL     1       1.302   5.294   2.163  1.00  0.00     0.186 C 
HETATM  131  C   UNL     1       0.871   6.680   1.622  1.00  0.00     0.176 C 
HETATM  132  O   UNL     1       1.995   7.485   1.184  1.00  0.00    -0.379 OA
HETATM  133  C   UNL     1       2.972   6.753   0.440  1.00  0.00     0.206 C 
HETATM  134  C   UNL     1       3.673   5.693   1.317  1.00  0.00     0.272 C 
HETATM  135  C   UNL     1       2.800   5.339   2.547  1.00  0.00     0.184 C 
BRANCH 131 136
HETATM  136  C   UNL     1      -0.143   6.591   0.474  1.00  0.00     0.198 C 
BRANCH 136 137
HETATM  137  O   UNL     1      -0.441   5.224   0.192  1.00  0.00    -0.398 OA
HETATM  138  H   UNL     1       0.211   4.931  -0.475  1.00  0.00     0.209 HD
ENDBRANCH 136 137
ENDBRANCH 131 136
BRANCH 134 139
HETATM  139  N   UNL     1       5.025   6.101   1.752  1.00  0.00     0.087 N 
HETATM  140  H   UNL     1       5.646   5.291   1.631  1.00  0.00     0.313 HD
HETATM  141  H   UNL     1       5.047   6.302   2.750  1.00  0.00     0.313 HD
ENDBRANCH 134 139
BRANCH 135 142
HETATM  142  O   UNL     1       3.047   6.301   3.595  1.00  0.00    -0.391 OA
HETATM  143  H   UNL     1       3.522   7.050   3.187  1.00  0.00     0.210 HD
ENDBRANCH 135 142
ENDBRANCH 129 130
ENDBRANCH 123 129
BRANCH 124 144
HETATM  144  N   UNL     1      -2.152   4.836   3.326  1.00  0.00     0.090 N 
HETATM  145  H   UNL     1      -2.500   5.360   2.523  1.00  0.00     0.313 HD
HETATM  146  H   UNL     1      -3.016   4.497   3.773  1.00  0.00     0.313 HD
ENDBRANCH 124 144
BRANCH 125 147
HETATM  147  O   UNL     1      -1.268   4.047   6.026  1.00  0.00    -0.391 OA
HETATM  148  H   UNL     1      -0.547   4.168   6.676  1.00  0.00     0.210 HD
ENDBRANCH 125 147
ENDBRANCH 119 120
ENDBRANCH   5 119
TORSDOF 58
ENDMDL
MODEL 2
REMARK VINA RESULT:      -7.2      3.958      9.790
REMARK WARNING: 32 MAX_TORS EXCEEDED!!!
REMARK  58 active torsions:
REMARK  status: ('A' for Active; 'I' for Inactive)
REMARK    1  A    between atoms: C_1  and  O_30 
REMARK    2  A    between atoms: C_2  and  C_6 
REMARK    3  A    between atoms: C_3  and  O_9 
REMARK    4  A    between atoms: C_4  and  N_11 
REMARK    5  A    between atoms: C_5  and  O_12 
REMARK    6  A    between atoms: C_6  and  O_7 
REMARK    7  A    between atoms: N_11  and  C_118 
REMARK    8  A    between atoms: O_12  and  C_20 
REMARK    9  A    between atoms: O_14  and  C_18 
REMARK   10  A    between atoms: C_16  and  C_23 
REMARK   11  A    between atoms: O_17  and  C_23 
REMARK   12  A    between atoms: O_19  and  C_22 
REMARK   13  A    between atoms: O_19  and  C_42 
REMARK   14  A    between atoms: N_21  and  C_24 
REMARK   15  A    between atoms: O_26  and  C_29 
REMARK   16  A    between atoms: C_28  and  C_34 
REMARK   17  A    between atoms: O_30  and  C_33 
REMARK   18  A    between atoms: C_31  and  O_53 
REMARK   19  A    between atoms: N_32  and  C_35 
REMARK   20  A    between atoms: C_34  and  O_65 
REMARK   21  A    between atoms: O_37  and  C_41 
REMARK   22  A    between atoms: C_39  and  C_45 
REMARK   23  A    between atoms: O_40  and  C_45 
REMARK   24  A    between atoms: N_43  and  C_46 
REMARK   25  A    between atoms: O_48  and  C_52 
REMARK   26  A    between atoms: C_50  and  C_57 
REMARK   27  A    between atoms: O_51  and  C_57 
REMARK   28  A    between atoms: O_53  and  C_56 
REMARK   29  A    between atoms: N_55  and  C_58 
REMARK   30  A    between atoms: N_55  and  C_71 
REMARK   31  A    between atoms: C_71  and  C_73 
REMARK   32  A    between atoms: C_73  and  C_74 
REMARK   33  A    between atoms: C_73  and  N_87 
REMARK   34  A    between atoms: C_74  and  C_75 
REMARK   35  A    between atoms: C_75  and  C_76 
REMARK   36  A    between atoms: C_75  and  N_101 
REMARK   37  A    between atoms: C_76  and  C_77 
REMARK   38  A    between atoms: C_77  and  C_78 
REMARK   39  A    between atoms: C_77  and  N_91 
REMARK   40  A    between atoms: C_78  and  C_79 
REMARK   41  A    between atoms: C_79  and  C_80 
REMARK   42  A    between atoms: C_79  and  N_106 
REMARK   43  A    between atoms: C_80  and  C_81 
REMARK   44  A    between atoms: C_81  and  N_96 
REMARK   45  A    between atoms: N_113  and  C_119 
REMARK   46  A    between atoms: C_118  and  C_119 
REMARK   47  A    between atoms: C_119  and  C_126 
REMARK   48  A    between atoms: N_122  and  C_128 
REMARK   49  A    between atoms: C_124  and  C_128 
REMARK   50  A    between atoms: C_124  and  C_130 
REMARK   51  A    between atoms: N_125  and  C_135 
REMARK   52  A    between atoms: C_126  and  C_130 
REMARK   53  A    between atoms: C_128  and  C_132 
REMARK   54  A    between atoms: N_129  and  C_130 
REMARK   55  A    between atoms: C_132  and  C_137 
REMARK   56  A    between atoms: C_135  and  C_136 
REMARK   57  A    between atoms: C_136  and  C_137 
REMARK   58  A    between atoms: C_137  and  N_140 
ROOT
HETATM    1  C   UNL     1      -1.124   9.335  15.144  1.00  0.00     0.186 C 
HETATM    2  C   UNL     1      -0.141   9.160  16.365  1.00  0.00     0.179 C 
HETATM    3  C   UNL     1      -0.523  10.082  13.911  1.00  0.00     0.188 C 
HETATM    4  C   UNL     1       1.015   9.894  13.767  1.00  0.00     0.306 C 
HETATM    5  C   UNL     1       1.489  10.419  15.161  1.00  0.00     0.296 C 
HETATM    6  O   UNL     1       1.271   9.394  16.109  1.00  0.00    -0.349 OA
ENDROOT
BRANCH   1   7
HETATM    7  O   UNL     1      -1.635   8.048  14.752  1.00  0.00    -0.348 OA
BRANCH   7   8
HETATM    8  C   UNL     1      -1.043   6.932  15.445  1.00  0.00     0.296 C 
HETATM    9  O   UNL     1      -0.323   6.167  14.474  1.00  0.00    -0.349 OA
HETATM   10  C   UNL     1       0.293   4.958  14.966  1.00  0.00     0.179 C 
HETATM   11  C   UNL     1      -0.685   4.092  15.790  1.00  0.00     0.186 C 
HETATM   12  C   UNL     1      -2.120   4.628  15.657  1.00  0.00     0.187 C 
HETATM   13  C   UNL     1      -2.158   6.082  16.147  1.00  0.00     0.303 C 
BRANCH  10  14
HETATM   14  C   UNL     1       1.575   5.283  15.757  1.00  0.00     0.198 C 
BRANCH  14  15
HETATM   15  O   UNL     1       2.729   4.696  15.161  1.00  0.00    -0.398 OA
HETATM   16  H   UNL     1       3.474   4.817  15.780  1.00  0.00     0.209 HD
ENDBRANCH  14  15
ENDBRANCH  10  14
BRANCH  11  17
HETATM   17  O   UNL     1      -0.702   2.728  15.360  1.00  0.00    -0.348 OA
BRANCH  17  18
HETATM   18  C   UNL     1       0.080   1.834  16.144  1.00  0.00     0.296 C 
HETATM   19  O   UNL     1       1.421   1.836  15.665  1.00  0.00    -0.351 OA
HETATM   20  C   UNL     1       2.109   0.576  15.667  1.00  0.00     0.150 C 
HETATM   21  C   UNL     1       1.766  -0.251  16.903  1.00  0.00     0.068 C 
HETATM   22  C   UNL     1       0.255  -0.468  17.065  1.00  0.00     0.158 C 
HETATM   23  C   UNL     1      -0.624   0.447  16.172  1.00  0.00     0.303 C 
BRANCH  20  24
HETATM   24  C   UNL     1       3.623   0.842  15.581  1.00  0.00     0.196 C 
BRANCH  24  25
HETATM   25  O   UNL     1       3.861   2.246  15.488  1.00  0.00    -0.398 OA
HETATM   26  H   UNL     1       3.783   2.614  16.384  1.00  0.00     0.209 HD
ENDBRANCH  24  25
ENDBRANCH  20  24
BRANCH  22  27
HETATM   27  O   UNL     1      -0.056  -1.844  16.813  1.00  0.00    -0.393 OA
HETATM   28  H   UNL     1      -0.767  -1.822  16.138  1.00  0.00     0.210 HD
ENDBRANCH  22  27
BRANCH  23  29
HETATM   29  N   UNL     1      -0.854  -0.251  14.875  1.00  0.00     0.097 N 
HETATM   30  H   UNL     1      -0.607   0.416  14.137  1.00  0.00     0.316 HD
BRANCH  29  31
HETATM   31  C   UNL     1      -2.243  -0.634  14.566  1.00  0.00     0.296 C 
BRANCH  31  32
HETATM   32  C   UNL     1      -2.662  -2.117  14.933  1.00  0.00     0.120 C 
BRANCH  32  33
HETATM   33  C   UNL     1      -3.080  -2.879  13.626  1.00  0.00     0.053 C 
BRANCH  33  34
HETATM   34  C   UNL     1      -2.709  -4.401  13.410  1.00  0.00     0.094 C 
BRANCH  34  35
HETATM   35  C   UNL     1      -1.991  -4.542  11.984  1.00  0.00     0.051 C 
BRANCH  35  36
HETATM   36  C   UNL     1      -1.597  -5.912  11.329  1.00  0.00     0.094 C 
BRANCH  36  37
HETATM   37  C   UNL     1      -2.696  -7.023  11.475  1.00  0.00     0.051 C 
BRANCH  37  38
HETATM   38  C   UNL     1      -2.190  -8.412  11.975  1.00  0.00     0.094 C 
BRANCH  38  39
HETATM   39  C   UNL     1      -0.636  -8.441  12.200  1.00  0.00     0.051 C 
BRANCH  39  40
HETATM   40  C   UNL     1       0.207  -9.737  12.043  1.00  0.00     0.089 C 
HETATM   41  C   UNL     1       0.984  -9.682  10.716  1.00  0.00     0.033 C 
BRANCH  40  42
HETATM   42  N   UNL     1       1.153 -10.028  13.110  1.00  0.00    -0.334 N 
HETATM   43  C   UNL     1       2.278 -10.799  12.976  1.00  0.00     0.210 A 
HETATM   44  N   UNL     1       2.952 -10.869  14.100  1.00  0.00    -0.254 NA
HETATM   45  C   UNL     1       2.243 -10.104  14.989  1.00  0.00     0.150 A 
HETATM   46  C   UNL     1       1.130  -9.554  14.392  1.00  0.00     0.082 A 
ENDBRANCH  40  42
ENDBRANCH  39  40
ENDBRANCH  38  39
BRANCH  38  47
HETATM   47  N   UNL     1      -3.004  -9.071  12.986  1.00  0.00    -0.339 N 
HETATM   48  C   UNL     1      -2.759  -9.098  14.332  1.00  0.00     0.209 C 
HETATM   49  N   UNL     1      -3.565  -9.921  14.960  1.00  0.00    -0.254 NA
HETATM   50  C   UNL     1      -4.473 -10.314  14.026  1.00  0.00     0.142 C 
HETATM   51  C   UNL     1      -4.200  -9.745  12.797  1.00  0.00     0.026 C 
HETATM   52  C   UNL     1      -5.037  -9.784  11.574  1.00  0.00     0.070 C 
ENDBRANCH  38  47
ENDBRANCH  37  38
ENDBRANCH  36  37
BRANCH  36  53
HETATM   53  N   UNL     1      -1.311  -5.772   9.897  1.00  0.00    -0.345 N 
HETATM   54  C   UNL     1      -2.142  -5.243   8.949  1.00  0.00     0.209 A 
HETATM   55  N   UNL     1      -1.537  -5.133   7.788  1.00  0.00    -0.255 NA
HETATM   56  C   UNL     1      -0.267  -5.593   7.989  1.00  0.00     0.135 A 
HETATM   57  C   UNL     1      -0.091  -5.964   9.300  1.00  0.00     0.111 A 
ENDBRANCH  36  53
ENDBRANCH  35  36
ENDBRANCH  34  35
BRANCH  34  58
HETATM   58  N   UNL     1      -2.237  -5.142  14.587  1.00  0.00    -0.339 N 
HETATM   59  C   UNL     1      -3.088  -5.614  15.564  1.00  0.00     0.209 C 
HETATM   60  N   UNL     1      -2.473  -6.181  16.569  1.00  0.00    -0.254 NA
HETATM   61  C   UNL     1      -1.161  -5.961  16.330  1.00  0.00     0.142 C 
HETATM   62  C   UNL     1      -0.979  -5.208  15.184  1.00  0.00     0.026 C 
HETATM   63  C   UNL     1       0.305  -4.570  14.800  1.00  0.00     0.070 C 
ENDBRANCH  34  58
ENDBRANCH  33  34
ENDBRANCH  32  33
BRANCH  32  64
HETATM   64  N   UNL     1      -3.546  -2.272  16.091  1.00  0.00    -0.344 N 
HETATM   65  C   UNL     1      -3.250  -2.313  17.429  1.00  0.00     0.111 A 
HETATM   66  C   UNL     1      -4.441  -2.497  18.087  1.00  0.00     0.135 A 
HETATM   67  N   UNL     1      -5.460  -2.616  17.196  1.00  0.00    -0.255 NA
HETATM   68  C   UNL     1      -4.901  -2.483  16.016  1.00  0.00     0.209 A 
ENDBRANCH  32  64
ENDBRANCH  31  32
ENDBRANCH  29  31
ENDBRANCH  23  29
ENDBRANCH  17  18
ENDBRANCH  11  17
BRANCH  12  69
HETATM   69  O   UNL     1      -2.607   4.532  14.308  1.00  0.00    -0.391 OA
HETATM   70  H   UNL     1      -3.366   5.143  14.226  1.00  0.00     0.210 HD
ENDBRANCH  12  69
BRANCH  13  71
HETATM   71  N   UNL     1      -3.526   6.621  16.011  1.00  0.00     0.090 N 
HETATM   72  H   UNL     1      -3.766   6.509  15.021  1.00  0.00     0.313 HD
HETATM   73  H   UNL     1      -3.427   7.640  16.117  1.00  0.00     0.313 HD
ENDBRANCH  13  71
ENDBRANCH   7   8
ENDBRANCH   1   7
BRANCH   2  74
HETATM   74  C   UNL     1      -0.603  10.067  17.534  1.00  0.00     0.198 C 
BRANCH  74  75
HETATM   75  O   UNL     1       0.377  10.113  18.563  1.00  0.00    -0.398 OA
HETATM   76  H   UNL     1       0.185  10.881  19.129  1.00  0.00     0.209 HD
ENDBRANCH  74  75
ENDBRANCH   2  74
BRANCH   3  77
HETATM   77  O   UNL     1      -1.234   9.799  12.701  1.00  0.00    -0.391 OA
HETATM   78  H   UNL     1      -1.623  10.628  12.373  1.00  0.00     0.210 HD
ENDBRANCH   3  77
BRANCH   4  79
HETATM   79  N   UNL     1       1.256   8.503  13.271  1.00  0.00     0.097 N 
HETATM   80  H   UNL     1       0.367   8.046  13.094  1.00  0.00     0.316 HD
BRANCH  79  81
HETATM   81  C   UNL     1       2.210   8.279  12.170  1.00  0.00     0.296 C 
BRANCH  81  82
HETATM   82  C   UNL     1       1.658   7.447  10.894  1.00  0.00     0.120 C 
BRANCH  82  83
HETATM   83  N   UNL     1       1.341   6.054  11.203  1.00  0.00    -0.344 N 
HETATM   84  C   UNL     1       2.192   5.053  11.595  1.00  0.00     0.111 A 
HETATM   85  C   UNL     1       1.412   3.926  11.722  1.00  0.00     0.135 A 
HETATM   86  N   UNL     1       0.118   4.200  11.380  1.00  0.00    -0.255 NA
HETATM   87  C   UNL     1       0.112   5.468  11.042  1.00  0.00     0.209 A 
ENDBRANCH  82  83
BRANCH  82  88
HETATM   88  C   UNL     1       0.550   8.259  10.126  1.00  0.00     0.053 C 
BRANCH  88  89
HETATM   89  C   UNL     1       0.795   9.410   9.058  1.00  0.00     0.094 C 
BRANCH  89  90
HETATM   90  C   UNL     1       1.542   8.987   7.709  1.00  0.00     0.051 C 
BRANCH  90  91
HETATM   91  C   UNL     1       1.100   7.664   6.926  1.00  0.00     0.094 C 
BRANCH  91  92
HETATM   92  N   UNL     1       2.191   6.690   6.798  1.00  0.00    -0.345 N 
HETATM   93  C   UNL     1       2.870   6.370   5.652  1.00  0.00     0.111 A 
HETATM   94  C   UNL     1       3.605   5.251   5.967  1.00  0.00     0.135 A 
HETATM   95  N   UNL     1       3.378   4.875   7.260  1.00  0.00    -0.255 NA
HETATM   96  C   UNL     1       2.537   5.761   7.741  1.00  0.00     0.209 A 
ENDBRANCH  91  92
BRANCH  91  97
HETATM   97  C   UNL     1       0.507   7.892   5.482  1.00  0.00     0.051 C 
BRANCH  97  98
HETATM   98  C   UNL     1      -0.593   6.881   4.968  1.00  0.00     0.094 C 
BRANCH  98  99
HETATM   99  C   UNL     1      -0.693   6.906   3.381  1.00  0.00     0.051 C 
BRANCH  99 100
HETATM  100  C   UNL     1      -1.894   6.299   2.587  1.00  0.00     0.089 C 
HETATM  101  C   UNL     1      -3.209   6.544   3.351  1.00  0.00     0.033 C 
BRANCH 100 102
HETATM  102  N   UNL     1      -2.077   6.799   1.229  1.00  0.00    -0.334 N 
HETATM  103  C   UNL     1      -2.681   7.969   0.853  1.00  0.00     0.082 A 
HETATM  104  C   UNL     1      -2.602   7.978  -0.522  1.00  0.00     0.150 A 
HETATM  105  N   UNL     1      -2.006   6.835  -0.988  1.00  0.00    -0.254 NA
HETATM  106  C   UNL     1      -1.696   6.146   0.086  1.00  0.00     0.210 A 
ENDBRANCH 100 102
ENDBRANCH  99 100
ENDBRANCH  98  99
BRANCH  98 107
HETATM  107  N   UNL     1      -0.704   5.569   5.592  1.00  0.00    -0.339 N 
HETATM  108  C   UNL     1      -0.037   4.429   5.237  1.00  0.00     0.209 C 
HETATM  109  N   UNL     1      -0.730   3.353   5.535  1.00  0.00    -0.254 NA
HETATM  110  C   UNL     1      -1.732   3.790   6.344  1.00  0.00     0.142 C 
HETATM  111  C   UNL     1      -1.653   5.158   6.514  1.00  0.00     0.026 C 
HETATM  112  C   UNL     1      -2.330   5.980   7.536  1.00  0.00     0.070 C 
ENDBRANCH  98 107
ENDBRANCH  97  98
ENDBRANCH  91  97
ENDBRANCH  90  91
ENDBRANCH  89  90
BRANCH  89 113
HETATM  113  N   UNL     1      -0.176  10.518   9.006  1.00  0.00    -0.339 N 
HETATM  114  C   UNL     1      -0.353  11.697   9.705  1.00  0.00     0.026 C 
HETATM  115  C   UNL     1      -1.434  12.323   9.104  1.00  0.00     0.142 C 
HETATM  116  C   UNL     1       0.413  12.289  10.818  1.00  0.00     0.070 C 
HETATM  117  N   UNL     1      -1.798  11.690   7.962  1.00  0.00    -0.254 NA
HETATM  118  C   UNL     1      -0.983  10.682   7.891  1.00  0.00     0.209 C 
ENDBRANCH  89 113
ENDBRANCH  88  89
ENDBRANCH  82  88
ENDBRANCH  81  82
ENDBRANCH  79  81
ENDBRANCH   4  79
BRANCH   5 119
HETATM  119  O   UNL     1       2.818  10.964  15.138  1.00  0.00    -0.348 OA
BRANCH 119 120
HETATM  120  C   UNL     1       2.950  12.087  14.211  1.00  0.00     0.186 C 
HETATM  121  C   UNL     1       2.592  13.442  14.873  1.00  0.00     0.179 C 
HETATM  122  O   UNL     1       3.731  14.299  15.051  1.00  0.00    -0.349 OA
HETATM  123  C   UNL     1       4.475  14.628  13.873  1.00  0.00     0.296 C 
HETATM  124  C   UNL     1       4.669  13.412  12.907  1.00  0.00     0.303 C 
HETATM  125  C   UNL     1       4.377  12.078  13.629  1.00  0.00     0.187 C 
BRANCH 121 126
HETATM  126  C   UNL     1       1.508  14.201  14.080  1.00  0.00     0.198 C 
BRANCH 126 127
HETATM  127  O   UNL     1       0.231  13.589  14.232  1.00  0.00    -0.398 OA
HETATM  128  H   UNL     1       0.166  13.249  15.146  1.00  0.00     0.209 HD
ENDBRANCH 126 127
ENDBRANCH 121 126
BRANCH 123 129
HETATM  129  O   UNL     1       5.749  15.123  14.304  1.00  0.00    -0.348 OA
BRANCH 129 130
HETATM  130  C   UNL     1       5.950  16.540  14.172  1.00  0.00     0.186 C 
HETATM  131  C   UNL     1       7.409  16.923  14.523  1.00  0.00     0.176 C 
HETATM  132  O   UNL     1       7.958  17.922  13.626  1.00  0.00    -0.379 OA
HETATM  133  C   UNL     1       7.047  18.979  13.316  1.00  0.00     0.206 C 
HETATM  134  C   UNL     1       5.839  18.464  12.505  1.00  0.00     0.272 C 
HETATM  135  C   UNL     1       5.655  16.939  12.706  1.00  0.00     0.184 C 
BRANCH 131 136
HETATM  136  C   UNL     1       7.572  17.420  15.966  1.00  0.00     0.198 C 
BRANCH 136 137
HETATM  137  O   UNL     1       8.949  17.673  16.241  1.00  0.00    -0.398 OA
HETATM  138  H   UNL     1       9.286  16.886  16.714  1.00  0.00     0.209 HD
ENDBRANCH 136 137
ENDBRANCH 131 136
BRANCH 134 139
HETATM  139  N   UNL     1       5.929  18.780  11.063  1.00  0.00     0.087 N 
HETATM  140  H   UNL     1       6.850  18.465  10.735  1.00  0.00     0.313 HD
HETATM  141  H   UNL     1       5.925  19.787  10.905  1.00  0.00     0.313 HD
ENDBRANCH 134 139
BRANCH 135 142
HETATM  142  O   UNL     1       6.515  16.233  11.786  1.00  0.00    -0.391 OA
HETATM  143  H   UNL     1       6.365  16.622  10.903  1.00  0.00     0.210 HD
ENDBRANCH 135 142
ENDBRANCH 129 130
ENDBRANCH 123 129
BRANCH 124 144
HETATM  144  N   UNL     1       5.988  13.410  12.232  1.00  0.00     0.090 N 
HETATM  145  H   UNL     1       6.215  12.460  11.936  1.00  0.00     0.313 HD
HETATM  146  H   UNL     1       6.672  13.587  12.982  1.00  0.00     0.313 HD
ENDBRANCH 124 144
BRANCH 125 147
HETATM  147  O   UNL     1       5.366  11.791  14.618  1.00  0.00    -0.391 OA
HETATM  148  H   UNL     1       6.014  12.523  14.591  1.00  0.00     0.210 HD
ENDBRANCH 125 147
ENDBRANCH 119 120
ENDBRANCH   5 119
TORSDOF 58
ENDMDL
MODEL 3
REMARK VINA RESULT:      -7.1      3.339      9.154
REMARK WARNING: 32 MAX_TORS EXCEEDED!!!
REMARK  58 active torsions:
REMARK  status: ('A' for Active; 'I' for Inactive)
REMARK    1  A    between atoms: C_1  and  O_30 
REMARK    2  A    between atoms: C_2  and  C_6 
REMARK    3  A    between atoms: C_3  and  O_9 
REMARK    4  A    between atoms: C_4  and  N_11 
REMARK    5  A    between atoms: C_5  and  O_12 
REMARK    6  A    between atoms: C_6  and  O_7 
REMARK    7  A    between atoms: N_11  and  C_118 
REMARK    8  A    between atoms: O_12  and  C_20 
REMARK    9  A    between atoms: O_14  and  C_18 
REMARK   10  A    between atoms: C_16  and  C_23 
REMARK   11  A    between atoms: O_17  and  C_23 
REMARK   12  A    between atoms: O_19  and  C_22 
REMARK   13  A    between atoms: O_19  and  C_42 
REMARK   14  A    between atoms: N_21  and  C_24 
REMARK   15  A    between atoms: O_26  and  C_29 
REMARK   16  A    between atoms: C_28  and  C_34 
REMARK   17  A    between atoms: O_30  and  C_33 
REMARK   18  A    between atoms: C_31  and  O_53 
REMARK   19  A    between atoms: N_32  and  C_35 
REMARK   20  A    between atoms: C_34  and  O_65 
REMARK   21  A    between atoms: O_37  and  C_41 
REMARK   22  A    between atoms: C_39  and  C_45 
REMARK   23  A    between atoms: O_40  and  C_45 
REMARK   24  A    between atoms: N_43  and  C_46 
REMARK   25  A    between atoms: O_48  and  C_52 
REMARK   26  A    between atoms: C_50  and  C_57 
REMARK   27  A    between atoms: O_51  and  C_57 
REMARK   28  A    between atoms: O_53  and  C_56 
REMARK   29  A    between atoms: N_55  and  C_58 
REMARK   30  A    between atoms: N_55  and  C_71 
REMARK   31  A    between atoms: C_71  and  C_73 
REMARK   32  A    between atoms: C_73  and  C_74 
REMARK   33  A    between atoms: C_73  and  N_87 
REMARK   34  A    between atoms: C_74  and  C_75 
REMARK   35  A    between atoms: C_75  and  C_76 
REMARK   36  A    between atoms: C_75  and  N_101 
REMARK   37  A    between atoms: C_76  and  C_77 
REMARK   38  A    between atoms: C_77  and  C_78 
REMARK   39  A    between atoms: C_77  and  N_91 
REMARK   40  A    between atoms: C_78  and  C_79 
REMARK   41  A    between atoms: C_79  and  C_80 
REMARK   42  A    between atoms: C_79  and  N_106 
REMARK   43  A    between atoms: C_80  and  C_81 
REMARK   44  A    between atoms: C_81  and  N_96 
REMARK   45  A    between atoms: N_113  and  C_119 
REMARK   46  A    between atoms: C_118  and  C_119 
REMARK   47  A    between atoms: C_119  and  C_126 
REMARK   48  A    between atoms: N_122  and  C_128 
REMARK   49  A    between atoms: C_124  and  C_128 
REMARK   50  A    between atoms: C_124  and  C_130 
REMARK   51  A    between atoms: N_125  and  C_135 
REMARK   52  A    between atoms: C_126  and  C_130 
REMARK   53  A    between atoms: C_128  and  C_132 
REMARK   54  A    between atoms: N_129  and  C_130 
REMARK   55  A    between atoms: C_132  and  C_137 
REMARK   56  A    between atoms: C_135  and  C_136 
REMARK   57  A    between atoms: C_136  and  C_137 
REMARK   58  A    between atoms: C_137  and  N_140 
ROOT
HETATM    1  C   UNL     1      -2.214   7.858  14.287  1.00  0.00     0.186 C 
HETATM    2  C   UNL     1      -0.976   8.293  15.162  1.00  0.00     0.179 C 
HETATM    3  C   UNL     1      -2.153   8.292  12.788  1.00  0.00     0.188 C 
HETATM    4  C   UNL     1      -0.701   8.409  12.241  1.00  0.00     0.306 C 
HETATM    5  C   UNL     1      -0.104   9.435  13.258  1.00  0.00     0.296 C 
HETATM    6  O   UNL     1       0.209   8.737  14.446  1.00  0.00    -0.349 OA
ENDROOT
BRANCH   1   7
HETATM    7  O   UNL     1      -2.397   6.433  14.390  1.00  0.00    -0.348 OA
BRANCH   7   8
HETATM    8  C   UNL     1      -1.507   5.781  15.317  1.00  0.00     0.296 C 
HETATM    9  O   UNL     1      -0.561   5.039  14.542  1.00  0.00    -0.349 OA
HETATM   10  C   UNL     1       0.386   4.255  15.298  1.00  0.00     0.179 C 
HETATM   11  C   UNL     1      -0.298   3.388  16.378  1.00  0.00     0.186 C 
HETATM   12  C   UNL     1      -1.825   3.405  16.195  1.00  0.00     0.187 C 
HETATM   13  C   UNL     1      -2.322   4.855  16.284  1.00  0.00     0.303 C 
BRANCH  10  14
HETATM   14  C   UNL     1       1.484   5.155  15.896  1.00  0.00     0.198 C 
BRANCH  14  15
HETATM   15  O   UNL     1       1.682   6.336  15.123  1.00  0.00    -0.398 OA
HETATM   16  H   UNL     1       0.820   6.583  14.737  1.00  0.00     0.209 HD
ENDBRANCH  14  15
ENDBRANCH  10  14
BRANCH  11  17
HETATM   17  O   UNL     1       0.119   2.021  16.327  1.00  0.00    -0.348 OA
BRANCH  17  18
HETATM   18  C   UNL     1       0.717   1.614  15.103  1.00  0.00     0.296 C 
HETATM   19  O   UNL     1      -0.260   0.972  14.290  1.00  0.00    -0.351 OA
HETATM   20  C   UNL     1       0.181  -0.158  13.521  1.00  0.00     0.150 C 
HETATM   21  C   UNL     1       1.584   0.055  12.961  1.00  0.00     0.068 C 
HETATM   22  C   UNL     1       2.609   0.389  14.053  1.00  0.00     0.158 C 
HETATM   23  C   UNL     1       1.987   0.773  15.421  1.00  0.00     0.303 C 
BRANCH  20  24
HETATM   24  C   UNL     1      -0.834  -0.411  12.392  1.00  0.00     0.196 C 
BRANCH  24  25
HETATM   25  O   UNL     1      -1.071   0.801  11.676  1.00  0.00    -0.398 OA
HETATM   26  H   UNL     1      -1.852   0.659  11.114  1.00  0.00     0.209 HD
ENDBRANCH  24  25
ENDBRANCH  20  24
BRANCH  22  27
HETATM   27  O   UNL     1       3.507  -0.716  14.216  1.00  0.00    -0.393 OA
HETATM   28  H   UNL     1       3.000  -1.379  14.731  1.00  0.00     0.210 HD
ENDBRANCH  22  27
BRANCH  23  29
HETATM   29  N   UNL     1       1.821  -0.473  16.224  1.00  0.00     0.097 N 
HETATM   30  H   UNL     1       0.985  -0.943  15.864  1.00  0.00     0.316 HD
BRANCH  29  31
HETATM   31  C   UNL     1       1.551  -0.304  17.662  1.00  0.00     0.296 C 
BRANCH  31  32
HETATM   32  C   UNL     1       0.151  -0.835  18.182  1.00  0.00     0.120 C 
BRANCH  32  33
HETATM   33  C   UNL     1      -0.673  -1.400  16.971  1.00  0.00     0.053 C 
BRANCH  33  34
HETATM   34  C   UNL     1      -1.519  -2.730  17.103  1.00  0.00     0.094 C 
BRANCH  34  35
HETATM   35  C   UNL     1      -0.576  -3.859  17.739  1.00  0.00     0.051 C 
BRANCH  35  36
HETATM   36  C   UNL     1       0.345  -4.811  16.901  1.00  0.00     0.094 C 
BRANCH  36  37
HETATM   37  C   UNL     1       0.226  -4.603  15.349  1.00  0.00     0.051 C 
BRANCH  37  38
HETATM   38  C   UNL     1      -0.493  -5.745  14.567  1.00  0.00     0.094 C 
BRANCH  38  39
HETATM   39  C   UNL     1      -1.412  -6.621  15.492  1.00  0.00     0.051 C 
BRANCH  39  40
HETATM   40  C   UNL     1      -1.487  -8.169  15.371  1.00  0.00     0.089 C 
HETATM   41  C   UNL     1      -2.148  -8.747  16.634  1.00  0.00     0.033 C 
BRANCH  40  42
HETATM   42  N   UNL     1      -2.188  -8.695  14.210  1.00  0.00    -0.334 N 
HETATM   43  C   UNL     1      -3.317  -8.148  13.657  1.00  0.00     0.210 A 
HETATM   44  N   UNL     1      -3.715  -8.825  12.606  1.00  0.00    -0.254 NA
HETATM   45  C   UNL     1      -2.803  -9.838  12.466  1.00  0.00     0.150 A 
HETATM   46  C   UNL     1      -1.832  -9.768  13.440  1.00  0.00     0.082 A 
ENDBRANCH  40  42
ENDBRANCH  39  40
ENDBRANCH  38  39
BRANCH  38  47
HETATM   47  N   UNL     1      -1.034  -5.393  13.262  1.00  0.00    -0.339 N 
HETATM   48  C   UNL     1      -1.807  -4.302  12.972  1.00  0.00     0.209 C 
HETATM   49  N   UNL     1      -2.291  -4.355  11.754  1.00  0.00    -0.254 NA
HETATM   50  C   UNL     1      -1.681  -5.423  11.172  1.00  0.00     0.142 C 
HETATM   51  C   UNL     1      -0.831  -6.053  12.060  1.00  0.00     0.026 C 
HETATM   52  C   UNL     1       0.136  -7.141  11.773  1.00  0.00     0.070 C 
ENDBRANCH  38  47
ENDBRANCH  37  38
ENDBRANCH  36  37
BRANCH  36  53
HETATM   53  N   UNL     1       1.760  -4.652  17.251  1.00  0.00    -0.345 N 
HETATM   54  C   UNL     1       2.642  -3.766  16.697  1.00  0.00     0.209 A 
HETATM   55  N   UNL     1       3.795  -3.779  17.326  1.00  0.00    -0.255 NA
HETATM   56  C   UNL     1       3.657  -4.694  18.331  1.00  0.00     0.135 A 
HETATM   57  C   UNL     1       2.390  -5.225  18.327  1.00  0.00     0.111 A 
ENDBRANCH  36  53
ENDBRANCH  35  36
ENDBRANCH  34  35
BRANCH  34  58
HETATM   58  N   UNL     1      -2.924  -2.584  17.504  1.00  0.00    -0.339 N 
HETATM   59  C   UNL     1      -3.346  -2.708  18.811  1.00  0.00     0.209 C 
HETATM   60  N   UNL     1      -4.643  -2.621  18.957  1.00  0.00    -0.254 NA
HETATM   61  C   UNL     1      -5.123  -2.577  17.694  1.00  0.00     0.142 C 
HETATM   62  C   UNL     1      -4.103  -2.685  16.765  1.00  0.00     0.026 C 
HETATM   63  C   UNL     1      -4.315  -2.943  15.320  1.00  0.00     0.070 C 
ENDBRANCH  34  58
ENDBRANCH  33  34
ENDBRANCH  32  33
BRANCH  32  64
HETATM   64  N   UNL     1      -0.568   0.040  19.112  1.00  0.00    -0.344 N 
HETATM   65  C   UNL     1      -0.244   0.432  20.385  1.00  0.00     0.111 A 
HETATM   66  C   UNL     1      -1.270   1.234  20.818  1.00  0.00     0.135 A 
HETATM   67  N   UNL     1      -2.241   1.316  19.871  1.00  0.00    -0.255 NA
HETATM   68  C   UNL     1      -1.801   0.593  18.867  1.00  0.00     0.209 A 
ENDBRANCH  32  64
ENDBRANCH  31  32
ENDBRANCH  29  31
ENDBRANCH  23  29
ENDBRANCH  17  18
ENDBRANCH  11  17
BRANCH  12  69
HETATM   69  O   UNL     1      -2.223   2.805  14.951  1.00  0.00    -0.391 OA
HETATM   70  H   UNL     1      -2.142   3.489  14.256  1.00  0.00     0.210 HD
ENDBRANCH  12  69
BRANCH  13  71
HETATM   71  N   UNL     1      -3.786   4.895  16.093  1.00  0.00     0.090 N 
HETATM   72  H   UNL     1      -4.144   4.050  16.549  1.00  0.00     0.313 HD
HETATM   73  H   UNL     1      -3.933   4.703  15.092  1.00  0.00     0.313 HD
ENDBRANCH  13  71
ENDBRANCH   7   8
ENDBRANCH   1   7
BRANCH   2  74
HETATM   74  C   UNL     1      -1.412   9.397  16.159  1.00  0.00     0.198 C 
BRANCH  74  75
HETATM   75  O   UNL     1      -2.794   9.698  16.013  1.00  0.00    -0.398 OA
HETATM   76  H   UNL     1      -3.277   9.256  16.734  1.00  0.00     0.209 HD
ENDBRANCH  74  75
ENDBRANCH   2  74
BRANCH   3  77
HETATM   77  O   UNL     1      -3.000   7.496  11.953  1.00  0.00    -0.391 OA
HETATM   78  H   UNL     1      -3.913   7.572  12.281  1.00  0.00     0.210 HD
ENDBRANCH   3  77
BRANCH   4  79
HETATM   79  N   UNL     1      -0.177   7.020  12.047  1.00  0.00     0.097 N 
HETATM   80  H   UNL     1      -0.887   6.349  12.323  1.00  0.00     0.316 HD
BRANCH  79  81
HETATM   81  C   UNL     1       0.453   6.652  10.767  1.00  0.00     0.296 C 
BRANCH  81  82
HETATM   82  C   UNL     1       1.949   7.218  10.509  1.00  0.00     0.120 C 
BRANCH  82  83
HETATM   83  N   UNL     1       2.889   6.882  11.577  1.00  0.00    -0.344 N 
HETATM   84  C   UNL     1       3.548   5.698  11.790  1.00  0.00     0.111 A 
HETATM   85  C   UNL     1       4.280   5.881  12.942  1.00  0.00     0.135 A 
HETATM   86  N   UNL     1       4.055   7.124  13.460  1.00  0.00    -0.255 NA
HETATM   87  C   UNL     1       3.195   7.687  12.643  1.00  0.00     0.209 A 
ENDBRANCH  82  83
BRANCH  82  88
HETATM   88  C   UNL     1       2.425   6.907   9.041  1.00  0.00     0.053 C 
BRANCH  88  89
HETATM   89  C   UNL     1       1.583   7.125   7.711  1.00  0.00     0.094 C 
BRANCH  89  90
HETATM   90  C   UNL     1       1.020   5.808   6.998  1.00  0.00     0.051 C 
BRANCH  90  91
HETATM   91  C   UNL     1       1.163   5.627   5.415  1.00  0.00     0.094 C 
BRANCH  91  92
HETATM   92  N   UNL     1       2.554   5.724   4.958  1.00  0.00    -0.345 N 
HETATM   93  C   UNL     1       2.980   6.030   3.692  1.00  0.00     0.111 A 
HETATM   94  C   UNL     1       4.327   5.753   3.685  1.00  0.00     0.135 A 
HETATM   95  N   UNL     1       4.725   5.273   4.900  1.00  0.00    -0.255 NA
HETATM   96  C   UNL     1       3.647   5.277   5.650  1.00  0.00     0.209 A 
ENDBRANCH  91  92
BRANCH  91  97
HETATM   97  C   UNL     1       0.314   6.624   4.535  1.00  0.00     0.051 C 
BRANCH  97  98
HETATM   98  C   UNL     1      -1.178   6.227   4.202  1.00  0.00     0.094 C 
BRANCH  98  99
HETATM   99  C   UNL     1      -1.462   6.334   2.641  1.00  0.00     0.051 C 
BRANCH  99 100
HETATM  100  C   UNL     1      -2.518   7.306   2.024  1.00  0.00     0.089 C 
HETATM  101  C   UNL     1      -1.895   8.085   0.851  1.00  0.00     0.033 C 
BRANCH 100 102
HETATM  102  N   UNL     1      -3.745   6.686   1.536  1.00  0.00    -0.334 N 
HETATM  103  C   UNL     1      -4.272   6.776   0.276  1.00  0.00     0.082 A 
HETATM  104  C   UNL     1      -5.425   6.024   0.324  1.00  0.00     0.150 A 
HETATM  105  N   UNL     1      -5.630   5.517   1.581  1.00  0.00    -0.254 NA
HETATM  106  C   UNL     1      -4.603   5.926   2.289  1.00  0.00     0.210 A 
ENDBRANCH 100 102
ENDBRANCH  99 100
ENDBRANCH  98  99
BRANCH  98 107
HETATM  107  N   UNL     1      -1.783   5.089   4.882  1.00  0.00    -0.339 N 
HETATM  108  C   UNL     1      -2.531   5.115   6.027  1.00  0.00     0.209 C 
HETATM  109  N   UNL     1      -2.429   3.988   6.694  1.00  0.00    -0.254 NA
HETATM  110  C   UNL     1      -1.832   3.120   5.834  1.00  0.00     0.142 C 
HETATM  111  C   UNL     1      -1.549   3.746   4.637  1.00  0.00     0.026 C 
HETATM  112  C   UNL     1      -1.200   3.113   3.349  1.00  0.00     0.070 C 
ENDBRANCH  98 107
ENDBRANCH  97  98
ENDBRANCH  91  97
ENDBRANCH  90  91
ENDBRANCH  89  90
BRANCH  89 113
HETATM  113  N   UNL     1       0.817   8.377   7.578  1.00  0.00    -0.339 N 
HETATM  114  C   UNL     1      -0.471   8.772   7.883  1.00  0.00     0.026 C 
HETATM  115  C   UNL     1      -0.529  10.119   7.560  1.00  0.00     0.142 C 
HETATM  116  C   UNL     1      -1.598   8.031   8.480  1.00  0.00     0.070 C 
HETATM  117  N   UNL     1       0.699  10.609   7.263  1.00  0.00    -0.254 NA
HETATM  118  C   UNL     1       1.479   9.576   7.365  1.00  0.00     0.209 C 
ENDBRANCH  89 113
ENDBRANCH  88  89
ENDBRANCH  82  88
ENDBRANCH  81  82
ENDBRANCH  79  81
ENDBRANCH   4  79
BRANCH   5 119
HETATM  119  O   UNL     1       0.965  10.221  12.707  1.00  0.00    -0.348 OA
BRANCH 119 120
HETATM  120  C   UNL     1       1.585  11.101  13.696  1.00  0.00     0.186 C 
HETATM  121  C   UNL     1       3.091  10.797  13.892  1.00  0.00     0.179 C 
HETATM  122  O   UNL     1       3.944  11.838  13.389  1.00  0.00    -0.349 OA
HETATM  123  C   UNL     1       3.741  13.149  13.928  1.00  0.00     0.296 C 
HETATM  124  C   UNL     1       2.228  13.517  14.098  1.00  0.00     0.303 C 
HETATM  125  C   UNL     1       1.331  12.564  13.279  1.00  0.00     0.187 C 
BRANCH 121 126
HETATM  126  C   UNL     1       3.436  10.532  15.372  1.00  0.00     0.198 C 
BRANCH 126 127
HETATM  127  O   UNL     1       2.994   9.243  15.784  1.00  0.00    -0.398 OA
HETATM  128  H   UNL     1       2.507   8.838  15.039  1.00  0.00     0.209 HD
ENDBRANCH 126 127
ENDBRANCH 121 126
BRANCH 123 129
HETATM  129  O   UNL     1       4.375  14.074  13.035  1.00  0.00    -0.348 OA
BRANCH 129 130
HETATM  130  C   UNL     1       5.524  14.763  13.557  1.00  0.00     0.186 C 
HETATM  131  C   UNL     1       6.759  14.532  12.653  1.00  0.00     0.176 C 
HETATM  132  O   UNL     1       7.554  15.731  12.471  1.00  0.00    -0.379 OA
HETATM  133  C   UNL     1       7.737  16.487  13.670  1.00  0.00     0.206 C 
HETATM  134  C   UNL     1       6.402  17.073  14.179  1.00  0.00     0.272 C 
HETATM  135  C   UNL     1       5.203  16.276  13.607  1.00  0.00     0.184 C 
BRANCH 131 136
HETATM  136  C   UNL     1       7.677  13.411  13.160  1.00  0.00     0.198 C 
BRANCH 136 137
HETATM  137  O   UNL     1       6.953  12.183  13.231  1.00  0.00    -0.398 OA
HETATM  138  H   UNL     1       6.051  12.411  13.530  1.00  0.00     0.209 HD
ENDBRANCH 136 137
ENDBRANCH 131 136
BRANCH 134 139
HETATM  139  N   UNL     1       6.247  18.512  13.879  1.00  0.00     0.087 N 
HETATM  140  H   UNL     1       5.664  18.922  14.620  1.00  0.00     0.313 HD
HETATM  141  H   UNL     1       5.718  18.655  13.020  1.00  0.00     0.313 HD
ENDBRANCH 134 139
BRANCH 135 142
HETATM  142  O   UNL     1       4.875  16.788  12.298  1.00  0.00    -0.391 OA
HETATM  143  H   UNL     1       3.955  17.113  12.342  1.00  0.00     0.210 HD
ENDBRANCH 135 142
ENDBRANCH 129 130
ENDBRANCH 123 129
BRANCH 124 144
HETATM  144  N   UNL     1       1.941  14.943  13.815  1.00  0.00     0.090 N 
HETATM  145  H   UNL     1       1.143  15.244  14.374  1.00  0.00     0.313 HD
HETATM  146  H   UNL     1       1.568  14.954  12.855  1.00  0.00     0.313 HD
ENDBRANCH 124 144
BRANCH 125 147
HETATM  147  O   UNL     1       1.496  12.766  11.876  1.00  0.00    -0.391 OA
HETATM  148  H   UNL     1       0.835  12.201  11.428  1.00  0.00     0.210 HD
ENDBRANCH 125 147
ENDBRANCH 119 120
ENDBRANCH   5 119
TORSDOF 58
ENDMDL
MODEL 4
REMARK VINA RESULT:      -7.1      2.386      5.821
REMARK WARNING: 32 MAX_TORS EXCEEDED!!!
REMARK  58 active torsions:
REMARK  status: ('A' for Active; 'I' for Inactive)
REMARK    1  A    between atoms: C_1  and  O_30 
REMARK    2  A    between atoms: C_2  and  C_6 
REMARK    3  A    between atoms: C_3  and  O_9 
REMARK    4  A    between atoms: C_4  and  N_11 
REMARK    5  A    between atoms: C_5  and  O_12 
REMARK    6  A    between atoms: C_6  and  O_7 
REMARK    7  A    between atoms: N_11  and  C_118 
REMARK    8  A    between atoms: O_12  and  C_20 
REMARK    9  A    between atoms: O_14  and  C_18 
REMARK   10  A    between atoms: C_16  and  C_23 
REMARK   11  A    between atoms: O_17  and  C_23 
REMARK   12  A    between atoms: O_19  and  C_22 
REMARK   13  A    between atoms: O_19  and  C_42 
REMARK   14  A    between atoms: N_21  and  C_24 
REMARK   15  A    between atoms: O_26  and  C_29 
REMARK   16  A    between atoms: C_28  and  C_34 
REMARK   17  A    between atoms: O_30  and  C_33 
REMARK   18  A    between atoms: C_31  and  O_53 
REMARK   19  A    between atoms: N_32  and  C_35 
REMARK   20  A    between atoms: C_34  and  O_65 
REMARK   21  A    between atoms: O_37  and  C_41 
REMARK   22  A    between atoms: C_39  and  C_45 
REMARK   23  A    between atoms: O_40  and  C_45 
REMARK   24  A    between atoms: N_43  and  C_46 
REMARK   25  A    between atoms: O_48  and  C_52 
REMARK   26  A    between atoms: C_50  and  C_57 
REMARK   27  A    between atoms: O_51  and  C_57 
REMARK   28  A    between atoms: O_53  and  C_56 
REMARK   29  A    between atoms: N_55  and  C_58 
REMARK   30  A    between atoms: N_55  and  C_71 
REMARK   31  A    between atoms: C_71  and  C_73 
REMARK   32  A    between atoms: C_73  and  C_74 
REMARK   33  A    between atoms: C_73  and  N_87 
REMARK   34  A    between atoms: C_74  and  C_75 
REMARK   35  A    between atoms: C_75  and  C_76 
REMARK   36  A    between atoms: C_75  and  N_101 
REMARK   37  A    between atoms: C_76  and  C_77 
REMARK   38  A    between atoms: C_77  and  C_78 
REMARK   39  A    between atoms: C_77  and  N_91 
REMARK   40  A    between atoms: C_78  and  C_79 
REMARK   41  A    between atoms: C_79  and  C_80 
REMARK   42  A    between atoms: C_79  and  N_106 
REMARK   43  A    between atoms: C_80  and  C_81 
REMARK   44  A    between atoms: C_81  and  N_96 
REMARK   45  A    between atoms: N_113  and  C_119 
REMARK   46  A    between atoms: C_118  and  C_119 
REMARK   47  A    between atoms: C_119  and  C_126 
REMARK   48  A    between atoms: N_122  and  C_128 
REMARK   49  A    between atoms: C_124  and  C_128 
REMARK   50  A    between atoms: C_124  and  C_130 
REMARK   51  A    between atoms: N_125  and  C_135 
REMARK   52  A    between atoms: C_126  and  C_130 
REMARK   53  A    between atoms: C_128  and  C_132 
REMARK   54  A    between atoms: N_129  and  C_130 
REMARK   55  A    between atoms: C_132  and  C_137 
REMARK   56  A    between atoms: C_135  and  C_136 
REMARK   57  A    between atoms: C_136  and  C_137 
REMARK   58  A    between atoms: C_137  and  N_140 
ROOT
HETATM    1  C   UNL     1       0.694   6.587  11.601  1.00  0.00     0.186 C 
HETATM    2  C   UNL     1      -0.159   5.466  10.892  1.00  0.00     0.179 C 
HETATM    3  C   UNL     1       1.675   7.364  10.667  1.00  0.00     0.188 C 
HETATM    4  C   UNL     1       1.184   7.449   9.193  1.00  0.00     0.306 C 
HETATM    5  C   UNL     1       1.018   5.929   8.869  1.00  0.00     0.296 C 
HETATM    6  O   UNL     1      -0.200   5.494   9.439  1.00  0.00    -0.349 OA
ENDROOT
BRANCH   1   7
HETATM    7  O   UNL     1      -0.186   7.503  12.279  1.00  0.00    -0.348 OA
BRANCH   7   8
HETATM    8  C   UNL     1      -0.277   7.302  13.703  1.00  0.00     0.296 C 
HETATM    9  O   UNL     1       0.192   5.977  13.972  1.00  0.00    -0.349 OA
HETATM   10  C   UNL     1       0.116   5.557  15.351  1.00  0.00     0.179 C 
HETATM   11  C   UNL     1      -1.272   5.828  15.973  1.00  0.00     0.186 C 
HETATM   12  C   UNL     1      -2.276   6.244  14.886  1.00  0.00     0.187 C 
HETATM   13  C   UNL     1      -1.756   7.505  14.181  1.00  0.00     0.303 C 
BRANCH  10  14
HETATM   14  C   UNL     1       1.249   6.197  16.177  1.00  0.00     0.198 C 
BRANCH  14  15
HETATM   15  O   UNL     1       0.926   6.254  17.564  1.00  0.00    -0.398 OA
HETATM   16  H   UNL     1       1.601   6.806  18.001  1.00  0.00     0.209 HD
ENDBRANCH  14  15
ENDBRANCH  10  14
BRANCH  11  17
HETATM   17  O   UNL     1      -1.810   4.677  16.629  1.00  0.00    -0.348 OA
BRANCH  17  18
HETATM   18  C   UNL     1      -2.471   4.933  17.862  1.00  0.00     0.296 C 
HETATM   19  O   UNL     1      -1.810   5.997  18.539  1.00  0.00    -0.351 OA
HETATM   20  C   UNL     1      -1.708   5.888  19.968  1.00  0.00     0.150 C 
HETATM   21  C   UNL     1      -2.974   5.295  20.579  1.00  0.00     0.068 C 
HETATM   22  C   UNL     1      -3.343   3.938  19.966  1.00  0.00     0.158 C 
HETATM   23  C   UNL     1      -2.588   3.599  18.654  1.00  0.00     0.303 C 
BRANCH  20  24
HETATM   24  C   UNL     1      -1.414   7.284  20.547  1.00  0.00     0.196 C 
BRANCH  24  25
HETATM   25  O   UNL     1      -2.561   8.119  20.398  1.00  0.00    -0.398 OA
HETATM   26  H   UNL     1      -2.590   8.411  19.471  1.00  0.00     0.209 HD
ENDBRANCH  24  25
ENDBRANCH  20  24
BRANCH  22  27
HETATM   27  O   UNL     1      -3.128   2.905  20.936  1.00  0.00    -0.393 OA
HETATM   28  H   UNL     1      -3.058   2.078  20.412  1.00  0.00     0.210 HD
ENDBRANCH  22  27
BRANCH  23  29
HETATM   29  N   UNL     1      -1.330   2.882  19.012  1.00  0.00     0.097 N 
HETATM   30  H   UNL     1      -0.570   3.561  18.915  1.00  0.00     0.316 HD
BRANCH  29  31
HETATM   31  C   UNL     1      -0.932   1.766  18.137  1.00  0.00     0.296 C 
BRANCH  31  32
HETATM   32  C   UNL     1       0.374   1.985  17.267  1.00  0.00     0.120 C 
BRANCH  32  33
HETATM   33  C   UNL     1       0.059   1.661  15.764  1.00  0.00     0.053 C 
BRANCH  33  34
HETATM   34  C   UNL     1       0.090   0.176  15.220  1.00  0.00     0.094 C 
BRANCH  34  35
HETATM   35  C   UNL     1      -1.322  -0.131  14.529  1.00  0.00     0.051 C 
BRANCH  35  36
HETATM   36  C   UNL     1      -2.591  -0.633  15.303  1.00  0.00     0.094 C 
BRANCH  36  37
HETATM   37  C   UNL     1      -2.260  -1.367  16.651  1.00  0.00     0.051 C 
BRANCH  37  38
HETATM   38  C   UNL     1      -3.062  -2.677  16.921  1.00  0.00     0.094 C 
BRANCH  38  39
HETATM   39  C   UNL     1      -2.384  -3.940  16.280  1.00  0.00     0.051 C 
BRANCH  39  40
HETATM   40  C   UNL     1      -1.209  -3.835  15.268  1.00  0.00     0.089 C 
HETATM   41  C   UNL     1      -0.035  -4.701  15.758  1.00  0.00     0.033 C 
BRANCH  40  42
HETATM   42  N   UNL     1      -1.503  -4.205  13.892  1.00  0.00    -0.334 N 
HETATM   43  C   UNL     1      -1.145  -5.390  13.302  1.00  0.00     0.210 A 
HETATM   44  N   UNL     1      -1.563  -5.455  12.060  1.00  0.00    -0.254 NA
HETATM   45  C   UNL     1      -2.227  -4.276  11.843  1.00  0.00     0.150 A 
HETATM   46  C   UNL     1      -2.220  -3.489  12.974  1.00  0.00     0.082 A 
ENDBRANCH  40  42
ENDBRANCH  39  40
ENDBRANCH  38  39
BRANCH  38  47
HETATM   47  N   UNL     1      -3.598  -2.841  18.265  1.00  0.00    -0.339 N 
HETATM   48  C   UNL     1      -2.880  -2.838  19.430  1.00  0.00     0.209 C 
HETATM   49  N   UNL     1      -3.614  -3.190  20.458  1.00  0.00    -0.254 NA
HETATM   50  C   UNL     1      -4.887  -3.261  19.982  1.00  0.00     0.142 C 
HETATM   51  C   UNL     1      -4.928  -2.977  18.631  1.00  0.00     0.026 C 
HETATM   52  C   UNL     1      -6.128  -2.784  17.781  1.00  0.00     0.070 C 
ENDBRANCH  38  47
ENDBRANCH  37  38
ENDBRANCH  36  37
BRANCH  36  53
HETATM   53  N   UNL     1      -3.508   0.465  15.621  1.00  0.00    -0.345 N 
HETATM   54  C   UNL     1      -4.434   0.487  16.627  1.00  0.00     0.209 A 
HETATM   55  N   UNL     1      -4.999   1.668  16.734  1.00  0.00    -0.255 NA
HETATM   56  C   UNL     1      -4.414   2.445  15.775  1.00  0.00     0.135 A 
HETATM   57  C   UNL     1      -3.460   1.730  15.093  1.00  0.00     0.111 A 
ENDBRANCH  36  53
ENDBRANCH  35  36
ENDBRANCH  34  35
BRANCH  34  58
HETATM   58  N   UNL     1       1.353  -0.288  14.632  1.00  0.00    -0.339 N 
HETATM   59  C   UNL     1       1.651  -0.145  13.292  1.00  0.00     0.209 C 
HETATM   60  N   UNL     1       2.789  -0.687  12.945  1.00  0.00    -0.254 NA
HETATM   61  C   UNL     1       3.205  -1.338  14.054  1.00  0.00     0.142 C 
HETATM   62  C   UNL     1       2.282  -1.226  15.078  1.00  0.00     0.026 C 
HETATM   63  C   UNL     1       2.309  -2.042  16.318  1.00  0.00     0.070 C 
ENDBRANCH  34  58
ENDBRANCH  33  34
ENDBRANCH  32  33
BRANCH  32  64
HETATM   64  N   UNL     1       1.615   1.426  17.810  1.00  0.00    -0.344 N 
HETATM   65  C   UNL     1       2.905   1.537  17.358  1.00  0.00     0.111 A 
HETATM   66  C   UNL     1       3.684   0.804  18.219  1.00  0.00     0.135 A 
HETATM   67  N   UNL     1       2.911   0.207  19.165  1.00  0.00    -0.255 NA
HETATM   68  C   UNL     1       1.685   0.590  18.897  1.00  0.00     0.209 A 
ENDBRANCH  32  64
ENDBRANCH  31  32
ENDBRANCH  29  31
ENDBRANCH  23  29
ENDBRANCH  17  18
ENDBRANCH  11  17
BRANCH  12  69
HETATM   69  O   UNL     1      -2.510   5.190  13.938  1.00  0.00    -0.391 OA
HETATM   70  H   UNL     1      -2.394   4.340  14.410  1.00  0.00     0.210 HD
ENDBRANCH  12  69
BRANCH  13  71
HETATM   71  N   UNL     1      -2.700   7.911  13.121  1.00  0.00     0.090 N 
HETATM   72  H   UNL     1      -3.526   7.319  13.250  1.00  0.00     0.313 HD
HETATM   73  H   UNL     1      -2.291   7.559  12.245  1.00  0.00     0.313 HD
ENDBRANCH  13  71
ENDBRANCH   7   8
ENDBRANCH   1   7
BRANCH   2  74
HETATM   74  C   UNL     1       0.330   4.072  11.360  1.00  0.00     0.198 C 
BRANCH  74  75
HETATM   75  O   UNL     1      -0.349   3.664  12.542  1.00  0.00    -0.398 OA
HETATM   76  H   UNL     1       0.159   3.984  13.308  1.00  0.00     0.209 HD
ENDBRANCH  74  75
ENDBRANCH   2  74
BRANCH   3  77
HETATM   77  O   UNL     1       2.048   8.637  11.204  1.00  0.00    -0.391 OA
HETATM   78  H   UNL     1       1.839   9.322  10.546  1.00  0.00     0.210 HD
ENDBRANCH   3  77
BRANCH   4  79
HETATM   79  N   UNL     1       0.066   8.442   9.146  1.00  0.00     0.097 N 
HETATM   80  H   UNL     1      -0.363   8.515  10.064  1.00  0.00     0.316 HD
BRANCH  79  81
HETATM   81  C   UNL     1       0.296   9.769   8.547  1.00  0.00     0.296 C 
BRANCH  81  82
HETATM   82  C   UNL     1      -0.086  11.051   9.462  1.00  0.00     0.120 C 
BRANCH  82  83
HETATM   83  N   UNL     1      -0.958  12.008   8.785  1.00  0.00    -0.344 N 
HETATM   84  C   UNL     1      -1.570  13.119   9.306  1.00  0.00     0.111 A 
HETATM   85  C   UNL     1      -2.308  13.657   8.276  1.00  0.00     0.135 A 
HETATM   86  N   UNL     1      -2.198  12.885   7.154  1.00  0.00    -0.255 NA
HETATM   87  C   UNL     1      -1.414  11.890   7.497  1.00  0.00     0.209 A 
ENDBRANCH  82  83
BRANCH  82  88
HETATM   88  C   UNL     1      -0.530  10.604  10.904  1.00  0.00     0.053 C 
BRANCH  88  89
HETATM   89  C   UNL     1      -0.097  11.279  12.276  1.00  0.00     0.094 C 
BRANCH  89  90
HETATM   90  C   UNL     1       1.092  12.347  12.204  1.00  0.00     0.051 C 
BRANCH  90  91
HETATM   91  C   UNL     1       1.904  12.736  13.526  1.00  0.00     0.094 C 
BRANCH  91  92
HETATM   92  N   UNL     1       1.364  13.928  14.191  1.00  0.00    -0.345 N 
HETATM   93  C   UNL     1       0.459  14.816  13.671  1.00  0.00     0.111 A 
HETATM   94  C   UNL     1       0.454  15.880  14.542  1.00  0.00     0.135 A 
HETATM   95  N   UNL     1       1.340  15.673  15.560  1.00  0.00    -0.255 NA
HETATM   96  C   UNL     1       1.864  14.489  15.335  1.00  0.00     0.209 A 
ENDBRANCH  91  92
BRANCH  91  97
HETATM   97  C   UNL     1       3.451  12.974  13.330  1.00  0.00     0.051 C 
BRANCH  97  98
HETATM   98  C   UNL     1       4.446  11.941  13.993  1.00  0.00     0.094 C 
BRANCH  98  99
HETATM   99  C   UNL     1       5.947  12.457  13.904  1.00  0.00     0.051 C 
BRANCH  99 100
HETATM  100  C   UNL     1       6.339  13.968  13.939  1.00  0.00     0.089 C 
HETATM  101  C   UNL     1       7.373  14.218  15.054  1.00  0.00     0.033 C 
BRANCH 100 102
HETATM  102  N   UNL     1       6.888  14.513  12.703  1.00  0.00    -0.334 N 
HETATM  103  C   UNL     1       7.252  13.817  11.582  1.00  0.00     0.082 A 
HETATM  104  C   UNL     1       7.707  14.777  10.705  1.00  0.00     0.150 A 
HETATM  105  N   UNL     1       7.668  16.023  11.275  1.00  0.00    -0.254 NA
HETATM  106  C   UNL     1       7.166  15.836  12.475  1.00  0.00     0.210 A 
ENDBRANCH 100 102
ENDBRANCH  99 100
ENDBRANCH  98  99
BRANCH  98 107
HETATM  107  N   UNL     1       4.071  11.288  15.240  1.00  0.00    -0.339 N 
HETATM  108  C   UNL     1       4.162  11.807  16.502  1.00  0.00     0.209 C 
HETATM  109  N   UNL     1       4.329  10.863  17.401  1.00  0.00    -0.254 NA
HETATM  110  C   UNL     1       4.063   9.701  16.747  1.00  0.00     0.142 C 
HETATM  111  C   UNL     1       3.756   9.951  15.424  1.00  0.00     0.026 C 
HETATM  112  C   UNL     1       3.114   9.036  14.459  1.00  0.00     0.070 C 
ENDBRANCH  98 107
ENDBRANCH  97  98
ENDBRANCH  91  97
ENDBRANCH  90  91
ENDBRANCH  89  90
BRANCH  89 113
HETATM  113  N   UNL     1      -1.128  11.445  13.317  1.00  0.00    -0.339 N 
HETATM  114  C   UNL     1      -1.197  11.187  14.673  1.00  0.00     0.026 C 
HETATM  115  C   UNL     1      -2.445  11.642  15.070  1.00  0.00     0.142 C 
HETATM  116  C   UNL     1      -0.206  10.619  15.605  1.00  0.00     0.070 C 
HETATM  117  N   UNL     1      -3.057  12.336  14.079  1.00  0.00    -0.254 NA
HETATM  118  C   UNL     1      -2.217  12.271  13.091  1.00  0.00     0.209 C 
ENDBRANCH  89 113
ENDBRANCH  88  89
ENDBRANCH  82  88
ENDBRANCH  81  82
ENDBRANCH  79  81
ENDBRANCH   4  79
BRANCH   5 119
HETATM  119  O   UNL     1       1.188   5.626   7.476  1.00  0.00    -0.348 OA
BRANCH 119 120
HETATM  120  C   UNL     1      -0.071   5.292   6.813  1.00  0.00     0.186 C 
HETATM  121  C   UNL     1      -0.917   6.549   6.488  1.00  0.00     0.179 C 
HETATM  122  O   UNL     1      -1.001   6.821   5.079  1.00  0.00    -0.349 OA
HETATM  123  C   UNL     1      -1.530   5.775   4.256  1.00  0.00     0.296 C 
HETATM  124  C   UNL     1      -1.009   4.354   4.656  1.00  0.00     0.303 C 
HETATM  125  C   UNL     1       0.241   4.454   5.557  1.00  0.00     0.187 C 
BRANCH 121 126
HETATM  126  C   UNL     1      -2.342   6.450   7.069  1.00  0.00     0.198 C 
BRANCH 126 127
HETATM  127  O   UNL     1      -2.479   7.243   8.244  1.00  0.00    -0.398 OA
HETATM  128  H   UNL     1      -1.584   7.416   8.598  1.00  0.00     0.209 HD
ENDBRANCH 126 127
ENDBRANCH 121 126
BRANCH 123 129
HETATM  129  O   UNL     1      -1.156   6.073   2.905  1.00  0.00    -0.348 OA
BRANCH 129 130
HETATM  130  C   UNL     1      -2.183   6.651   2.083  1.00  0.00     0.186 C 
HETATM  131  C   UNL     1      -1.658   6.910   0.649  1.00  0.00     0.176 C 
HETATM  132  O   UNL     1      -2.630   6.572  -0.373  1.00  0.00    -0.379 OA
HETATM  133  C   UNL     1      -3.960   6.993  -0.065  1.00  0.00     0.206 C 
HETATM  134  C   UNL     1      -4.522   6.239   1.159  1.00  0.00     0.272 C 
HETATM  135  C   UNL     1      -3.371   5.662   2.021  1.00  0.00     0.184 C 
BRANCH 131 136
HETATM  136  C   UNL     1      -1.198   8.357   0.426  1.00  0.00     0.198 C 
BRANCH 136 137
HETATM  137  O   UNL     1      -0.805   8.540  -0.934  1.00  0.00    -0.398 OA
HETATM  138  H   UNL     1      -0.182   9.293  -0.942  1.00  0.00     0.209 HD
ENDBRANCH 136 137
ENDBRANCH 131 136
BRANCH 134 139
HETATM  139  N   UNL     1      -5.472   5.167   0.794  1.00  0.00     0.087 N 
HETATM  140  H   UNL     1      -4.925   4.383   0.416  1.00  0.00     0.313 HD
HETATM  141  H   UNL     1      -6.079   5.456   0.029  1.00  0.00     0.313 HD
ENDBRANCH 134 139
BRANCH 135 142
HETATM  142  O   UNL     1      -2.967   4.387   1.479  1.00  0.00    -0.391 OA
HETATM  143  H   UNL     1      -2.126   4.533   1.005  1.00  0.00     0.210 HD
ENDBRANCH 135 142
ENDBRANCH 129 130
ENDBRANCH 123 129
BRANCH 124 144
HETATM  144  N   UNL     1      -0.794   3.464   3.492  1.00  0.00     0.090 N 
HETATM  145  H   UNL     1      -1.664   2.981   3.270  1.00  0.00     0.313 HD
HETATM  146  H   UNL     1      -0.192   2.705   3.843  1.00  0.00     0.313 HD
ENDBRANCH 124 144
BRANCH 125 147
HETATM  147  O   UNL     1       1.367   4.955   4.836  1.00  0.00    -0.391 OA
HETATM  148  H   UNL     1       1.126   4.939   3.889  1.00  0.00     0.210 HD
ENDBRANCH 125 147
ENDBRANCH 119 120
ENDBRANCH   5 119
TORSDOF 58
ENDMDL
MODEL 5
REMARK VINA RESULT:      -7.0      2.350      5.913
REMARK WARNING: 32 MAX_TORS EXCEEDED!!!
REMARK  58 active torsions:
REMARK  status: ('A' for Active; 'I' for Inactive)
REMARK    1  A    between atoms: C_1  and  O_30 
REMARK    2  A    between atoms: C_2  and  C_6 
REMARK    3  A    between atoms: C_3  and  O_9 
REMARK    4  A    between atoms: C_4  and  N_11 
REMARK    5  A    between atoms: C_5  and  O_12 
REMARK    6  A    between atoms: C_6  and  O_7 
REMARK    7  A    between atoms: N_11  and  C_118 
REMARK    8  A    between atoms: O_12  and  C_20 
REMARK    9  A    between atoms: O_14  and  C_18 
REMARK   10  A    between atoms: C_16  and  C_23 
REMARK   11  A    between atoms: O_17  and  C_23 
REMARK   12  A    between atoms: O_19  and  C_22 
REMARK   13  A    between atoms: O_19  and  C_42 
REMARK   14  A    between atoms: N_21  and  C_24 
REMARK   15  A    between atoms: O_26  and  C_29 
REMARK   16  A    between atoms: C_28  and  C_34 
REMARK   17  A    between atoms: O_30  and  C_33 
REMARK   18  A    between atoms: C_31  and  O_53 
REMARK   19  A    between atoms: N_32  and  C_35 
REMARK   20  A    between atoms: C_34  and  O_65 
REMARK   21  A    between atoms: O_37  and  C_41 
REMARK   22  A    between atoms: C_39  and  C_45 
REMARK   23  A    between atoms: O_40  and  C_45 
REMARK   24  A    between atoms: N_43  and  C_46 
REMARK   25  A    between atoms: O_48  and  C_52 
REMARK   26  A    between atoms: C_50  and  C_57 
REMARK   27  A    between atoms: O_51  and  C_57 
REMARK   28  A    between atoms: O_53  and  C_56 
REMARK   29  A    between atoms: N_55  and  C_58 
REMARK   30  A    between atoms: N_55  and  C_71 
REMARK   31  A    between atoms: C_71  and  C_73 
REMARK   32  A    between atoms: C_73  and  C_74 
REMARK   33  A    between atoms: C_73  and  N_87 
REMARK   34  A    between atoms: C_74  and  C_75 
REMARK   35  A    between atoms: C_75  and  C_76 
REMARK   36  A    between atoms: C_75  and  N_101 
REMARK   37  A    between atoms: C_76  and  C_77 
REMARK   38  A    between atoms: C_77  and  C_78 
REMARK   39  A    between atoms: C_77  and  N_91 
REMARK   40  A    between atoms: C_78  and  C_79 
REMARK   41  A    between atoms: C_79  and  C_80 
REMARK   42  A    between atoms: C_79  and  N_106 
REMARK   43  A    between atoms: C_80  and  C_81 
REMARK   44  A    between atoms: C_81  and  N_96 
REMARK   45  A    between atoms: N_113  and  C_119 
REMARK   46  A    between atoms: C_118  and  C_119 
REMARK   47  A    between atoms: C_119  and  C_126 
REMARK   48  A    between atoms: N_122  and  C_128 
REMARK   49  A    between atoms: C_124  and  C_128 
REMARK   50  A    between atoms: C_124  and  C_130 
REMARK   51  A    between atoms: N_125  and  C_135 
REMARK   52  A    between atoms: C_126  and  C_130 
REMARK   53  A    between atoms: C_128  and  C_132 
REMARK   54  A    between atoms: N_129  and  C_130 
REMARK   55  A    between atoms: C_132  and  C_137 
REMARK   56  A    between atoms: C_135  and  C_136 
REMARK   57  A    between atoms: C_136  and  C_137 
REMARK   58  A    between atoms: C_137  and  N_140 
ROOT
HETATM    1  C   UNL     1       0.842   6.817  11.879  1.00  0.00     0.186 C 
HETATM    2  C   UNL     1       0.148   5.864  10.831  1.00  0.00     0.179 C 
HETATM    3  C   UNL     1       1.658   7.998  11.264  1.00  0.00     0.188 C 
HETATM    4  C   UNL     1       1.108   8.474   9.888  1.00  0.00     0.306 C 
HETATM    5  C   UNL     1       1.167   7.133   9.087  1.00  0.00     0.296 C 
HETATM    6  O   UNL     1       0.053   6.352   9.465  1.00  0.00    -0.349 OA
ENDROOT
BRANCH   1   7
HETATM    7  O   UNL     1      -0.144   7.316  12.802  1.00  0.00    -0.348 OA
BRANCH   7   8
HETATM    8  C   UNL     1      -0.018   6.808  14.145  1.00  0.00     0.296 C 
HETATM    9  O   UNL     1       1.080   5.891  14.146  1.00  0.00    -0.349 OA
HETATM   10  C   UNL     1       1.328   5.218  15.399  1.00  0.00     0.179 C 
HETATM   11  C   UNL     1       0.045   4.601  15.999  1.00  0.00     0.186 C 
HETATM   12  C   UNL     1      -1.105   4.655  14.981  1.00  0.00     0.187 C 
HETATM   13  C   UNL     1      -1.355   6.118  14.586  1.00  0.00     0.303 C 
BRANCH  10  14
HETATM   14  C   UNL     1       2.030   6.162  16.394  1.00  0.00     0.198 C 
BRANCH  14  15
HETATM   15  O   UNL     1       1.159   6.563  17.449  1.00  0.00    -0.398 OA
HETATM   16  H   UNL     1       1.459   7.436  17.762  1.00  0.00     0.209 HD
ENDBRANCH  14  15
ENDBRANCH  10  14
BRANCH  11  17
HETATM   17  O   UNL     1       0.219   3.231  16.369  1.00  0.00    -0.348 OA
BRANCH  17  18
HETATM   18  C   UNL     1      -0.067   2.926  17.729  1.00  0.00     0.296 C 
HETATM   19  O   UNL     1       0.238   4.056  18.539  1.00  0.00    -0.351 OA
HETATM   20  C   UNL     1       0.816   3.791  19.827  1.00  0.00     0.150 C 
HETATM   21  C   UNL     1       0.197   2.558  20.478  1.00  0.00     0.068 C 
HETATM   22  C   UNL     1       0.286   1.313  19.586  1.00  0.00     0.158 C 
HETATM   23  C   UNL     1       0.663   1.606  18.111  1.00  0.00     0.303 C 
BRANCH  20  24
HETATM   24  C   UNL     1       0.636   5.036  20.713  1.00  0.00     0.196 C 
BRANCH  24  25
HETATM   25  O   UNL     1       1.547   6.056  20.303  1.00  0.00    -0.398 OA
HETATM   26  H   UNL     1       1.230   6.896  20.677  1.00  0.00     0.209 HD
ENDBRANCH  24  25
ENDBRANCH  20  24
BRANCH  22  27
HETATM   27  O   UNL     1       1.221   0.387  20.156  1.00  0.00    -0.393 OA
HETATM   28  H   UNL     1       1.999   0.933  20.399  1.00  0.00     0.210 HD
ENDBRANCH  22  27
BRANCH  23  29
HETATM   29  N   UNL     1       2.149   1.565  17.992  1.00  0.00     0.097 N 
HETATM   30  H   UNL     1       2.429   2.438  17.534  1.00  0.00     0.316 HD
BRANCH  29  31
HETATM   31  C   UNL     1       2.717   0.509  17.136  1.00  0.00     0.296 C 
BRANCH  31  32
HETATM   32  C   UNL     1       1.842   0.065  15.892  1.00  0.00     0.120 C 
BRANCH  32  33
HETATM   33  C   UNL     1       1.853  -1.500  15.779  1.00  0.00     0.053 C 
BRANCH  33  34
HETATM   34  C   UNL     1       0.852  -2.391  16.619  1.00  0.00     0.094 C 
BRANCH  34  35
HETATM   35  C   UNL     1      -0.621  -1.786  16.444  1.00  0.00     0.051 C 
BRANCH  35  36
HETATM   36  C   UNL     1      -1.279  -1.458  15.059  1.00  0.00     0.094 C 
BRANCH  36  37
HETATM   37  C   UNL     1      -2.360  -2.503  14.608  1.00  0.00     0.051 C 
BRANCH  37  38
HETATM   38  C   UNL     1      -3.003  -3.347  15.752  1.00  0.00     0.094 C 
BRANCH  38  39
HETATM   39  C   UNL     1      -4.445  -2.849  16.128  1.00  0.00     0.051 C 
BRANCH  39  40
HETATM   40  C   UNL     1      -4.739  -2.039  17.421  1.00  0.00     0.089 C 
HETATM   41  C   UNL     1      -5.546  -0.779  17.061  1.00  0.00     0.033 C 
BRANCH  40  42
HETATM   42  N   UNL     1      -5.446  -2.742  18.481  1.00  0.00    -0.334 N 
HETATM   43  C   UNL     1      -6.763  -3.117  18.434  1.00  0.00     0.210 A 
HETATM   44  N   UNL     1      -7.121  -3.754  19.524  1.00  0.00    -0.254 NA
HETATM   45  C   UNL     1      -5.991  -3.804  20.298  1.00  0.00     0.150 A 
HETATM   46  C   UNL     1      -4.930  -3.198  19.662  1.00  0.00     0.082 A 
ENDBRANCH  40  42
ENDBRANCH  39  40
ENDBRANCH  38  39
BRANCH  38  47
HETATM   47  N   UNL     1      -2.814  -4.788  15.678  1.00  0.00    -0.339 N 
HETATM   48  C   UNL     1      -2.767  -5.542  14.536  1.00  0.00     0.209 C 
HETATM   49  N   UNL     1      -2.769  -6.827  14.798  1.00  0.00    -0.254 NA
HETATM   50  C   UNL     1      -2.642  -6.917  16.150  1.00  0.00     0.142 C 
HETATM   51  C   UNL     1      -2.591  -5.665  16.729  1.00  0.00     0.026 C 
HETATM   52  C   UNL     1      -2.291  -5.330  18.142  1.00  0.00     0.070 C 
ENDBRANCH  38  47
ENDBRANCH  37  38
ENDBRANCH  36  37
BRANCH  36  53
HETATM   53  N   UNL     1      -1.925  -0.141  15.058  1.00  0.00    -0.345 N 
HETATM   54  C   UNL     1      -2.396   0.534  13.967  1.00  0.00     0.209 A 
HETATM   55  N   UNL     1      -3.042   1.623  14.317  1.00  0.00    -0.255 NA
HETATM   56  C   UNL     1      -3.003   1.651  15.682  1.00  0.00     0.135 A 
HETATM   57  C   UNL     1      -2.344   0.548  16.168  1.00  0.00     0.111 A 
ENDBRANCH  36  53
ENDBRANCH  35  36
ENDBRANCH  34  35
BRANCH  34  58
HETATM   58  N   UNL     1       1.095  -3.840  16.619  1.00  0.00    -0.339 N 
HETATM   59  C   UNL     1       0.718  -4.661  15.577  1.00  0.00     0.209 C 
HETATM   60  N   UNL     1       0.952  -5.930  15.795  1.00  0.00    -0.254 NA
HETATM   61  C   UNL     1       1.370  -5.980  17.079  1.00  0.00     0.142 C 
HETATM   62  C   UNL     1       1.346  -4.727  17.665  1.00  0.00     0.026 C 
HETATM   63  C   UNL     1       1.480  -4.485  19.123  1.00  0.00     0.070 C 
ENDBRANCH  34  58
ENDBRANCH  33  34
ENDBRANCH  32  33
BRANCH  32  64
HETATM   64  N   UNL     1       2.056   0.812  14.650  1.00  0.00    -0.344 N 
HETATM   65  C   UNL     1       2.837   1.912  14.404  1.00  0.00     0.111 A 
HETATM   66  C   UNL     1       2.661   2.226  13.079  1.00  0.00     0.135 A 
HETATM   67  N   UNL     1       1.762   1.382  12.507  1.00  0.00    -0.255 NA
HETATM   68  C   UNL     1       1.414   0.553  13.464  1.00  0.00     0.209 A 
ENDBRANCH  32  64
ENDBRANCH  31  32
ENDBRANCH  29  31
ENDBRANCH  23  29
ENDBRANCH  17  18
ENDBRANCH  11  17
BRANCH  12  69
HETATM   69  O   UNL     1      -0.834   3.853  13.820  1.00  0.00    -0.391 OA
HETATM   70  H   UNL     1      -1.336   4.238  13.074  1.00  0.00     0.210 HD
ENDBRANCH  12  69
BRANCH  13  71
HETATM   71  N   UNL     1      -2.447   6.189  13.594  1.00  0.00     0.090 N 
HETATM   72  H   UNL     1      -2.197   5.514  12.865  1.00  0.00     0.313 HD
HETATM   73  H   UNL     1      -2.328   7.098  13.126  1.00  0.00     0.313 HD
ENDBRANCH  13  71
ENDBRANCH   7   8
ENDBRANCH   1   7
BRANCH   2  74
HETATM   74  C   UNL     1       0.863   4.489  10.833  1.00  0.00     0.198 C 
BRANCH  74  75
HETATM   75  O   UNL     1      -0.015   3.458  11.266  1.00  0.00    -0.398 OA
HETATM   76  H   UNL     1      -0.552   3.179  10.504  1.00  0.00     0.209 HD
ENDBRANCH  74  75
ENDBRANCH   2  74
BRANCH   3  77
HETATM   77  O   UNL     1       1.848   9.073  12.189  1.00  0.00    -0.391 OA
HETATM   78  H   UNL     1       2.536   9.663  11.837  1.00  0.00     0.210 HD
ENDBRANCH   3  77
BRANCH   4  79
HETATM   79  N   UNL     1      -0.152   9.240  10.145  1.00  0.00     0.097 N 
HETATM   80  H   UNL     1      -0.248   9.411  11.141  1.00  0.00     0.316 HD
BRANCH  79  81
HETATM   81  C   UNL     1      -0.441  10.450   9.356  1.00  0.00     0.296 C 
BRANCH  81  82
HETATM   82  C   UNL     1      -0.462  11.854  10.166  1.00  0.00     0.120 C 
BRANCH  82  83
HETATM   83  N   UNL     1      -1.225  12.901   9.491  1.00  0.00    -0.344 N 
HETATM   84  C   UNL     1      -1.697  14.080  10.010  1.00  0.00     0.111 A 
HETATM   85  C   UNL     1      -2.380  14.693   8.985  1.00  0.00     0.135 A 
HETATM   86  N   UNL     1      -2.375  13.906   7.868  1.00  0.00    -0.255 NA
HETATM   87  C   UNL     1      -1.708  12.829   8.210  1.00  0.00     0.209 A 
ENDBRANCH  82  83
BRANCH  82  88
HETATM   88  C   UNL     1      -0.791  11.623  11.687  1.00  0.00     0.053 C 
BRANCH  88  89
HETATM   89  C   UNL     1       0.102  12.070  12.924  1.00  0.00     0.094 C 
BRANCH  89  90
HETATM   90  C   UNL     1       1.282  13.104  12.616  1.00  0.00     0.051 C 
BRANCH  90  91
HETATM   91  C   UNL     1       2.302  13.527  13.773  1.00  0.00     0.094 C 
BRANCH  91  92
HETATM   92  N   UNL     1       1.930  14.791  14.422  1.00  0.00    -0.345 N 
HETATM   93  C   UNL     1       2.301  16.050  14.032  1.00  0.00     0.111 A 
HETATM   94  C   UNL     1       1.934  16.874  15.070  1.00  0.00     0.135 A 
HETATM   95  N   UNL     1       1.370  16.150  16.083  1.00  0.00    -0.255 NA
HETATM   96  C   UNL     1       1.367  14.905  15.665  1.00  0.00     0.209 A 
ENDBRANCH  91  92
BRANCH  91  97
HETATM   97  C   UNL     1       3.813  13.656  13.338  1.00  0.00     0.051 C 
BRANCH  97  98
HETATM   98  C   UNL     1       4.922  13.295  14.403  1.00  0.00     0.094 C 
BRANCH  98  99
HETATM   99  C   UNL     1       5.949  14.494  14.586  1.00  0.00     0.051 C 
BRANCH  99 100
HETATM  100  C   UNL     1       7.400  14.478  14.008  1.00  0.00     0.089 C 
HETATM  101  C   UNL     1       8.063  13.115  14.286  1.00  0.00     0.033 C 
BRANCH 100 102
HETATM  102  N   UNL     1       7.519  14.739  12.578  1.00  0.00    -0.334 N 
HETATM  103  C   UNL     1       7.685  15.954  11.970  1.00  0.00     0.082 A 
HETATM  104  C   UNL     1       7.739  15.668  10.624  1.00  0.00     0.150 A 
HETATM  105  N   UNL     1       7.572  14.327  10.398  1.00  0.00    -0.254 NA
HETATM  106  C   UNL     1       7.446  13.791  11.591  1.00  0.00     0.210 A 
ENDBRANCH 100 102
ENDBRANCH  99 100
ENDBRANCH  98  99
BRANCH  98 107
HETATM  107  N   UNL     1       4.539  12.594  15.623  1.00  0.00    -0.339 N 
HETATM  108  C   UNL     1       4.458  13.119  16.883  1.00  0.00     0.209 C 
HETATM  109  N   UNL     1       4.678  12.203  17.800  1.00  0.00    -0.254 NA
HETATM  110  C   UNL     1       4.624  11.017  17.137  1.00  0.00     0.142 C 
HETATM  111  C   UNL     1       4.393  11.227  15.792  1.00  0.00     0.026 C 
HETATM  112  C   UNL     1       3.959  10.237  14.786  1.00  0.00     0.070 C 
ENDBRANCH  98 107
ENDBRANCH  97  98
ENDBRANCH  91  97
ENDBRANCH  90  91
ENDBRANCH  89  90
BRANCH  89 113
HETATM  113  N   UNL     1      -0.531  12.102  14.255  1.00  0.00    -0.339 N 
HETATM  114  C   UNL     1      -1.562  12.820  14.829  1.00  0.00     0.026 C 
HETATM  115  C   UNL     1      -1.695  12.311  16.112  1.00  0.00     0.142 C 
HETATM  116  C   UNL     1      -2.438  13.871  14.278  1.00  0.00     0.070 C 
HETATM  117  N   UNL     1      -0.941  11.198  16.282  1.00  0.00    -0.254 NA
HETATM  118  C   UNL     1      -0.334  11.056  15.143  1.00  0.00     0.209 C 
ENDBRANCH  89 113
ENDBRANCH  88  89
ENDBRANCH  82  88
ENDBRANCH  81  82
ENDBRANCH  79  81
ENDBRANCH   4  79
BRANCH   5 119
HETATM  119  O   UNL     1       1.334   7.325   7.674  1.00  0.00    -0.348 OA
BRANCH 119 120
HETATM  120  C   UNL     1       0.565   6.368   6.881  1.00  0.00     0.186 C 
HETATM  121  C   UNL     1      -0.791   6.950   6.407  1.00  0.00     0.179 C 
HETATM  122  O   UNL     1      -0.841   7.174   4.988  1.00  0.00    -0.349 OA
HETATM  123  C   UNL     1      -0.593   6.039   4.151  1.00  0.00     0.296 C 
HETATM  124  C   UNL     1       0.578   5.137   4.667  1.00  0.00     0.303 C 
HETATM  125  C   UNL     1       1.440   5.888   5.706  1.00  0.00     0.187 C 
BRANCH 121 126
HETATM  126  C   UNL     1      -1.977   6.053   6.819  1.00  0.00     0.198 C 
BRANCH 126 127
HETATM  127  O   UNL     1      -1.541   4.935   7.584  1.00  0.00    -0.398 OA
HETATM  128  H   UNL     1      -2.332   4.439   7.872  1.00  0.00     0.209 HD
ENDBRANCH 126 127
ENDBRANCH 121 126
BRANCH 123 129
HETATM  129  O   UNL     1      -0.289   6.539   2.843  1.00  0.00    -0.348 OA
BRANCH 129 130
HETATM  130  C   UNL     1      -1.236   6.216   1.811  1.00  0.00     0.186 C 
HETATM  131  C   UNL     1      -2.108   5.006   2.227  1.00  0.00     0.176 C 
HETATM  132  O   UNL     1      -3.502   5.168   1.862  1.00  0.00    -0.379 OA
HETATM  133  C   UNL     1      -3.696   5.713   0.555  1.00  0.00     0.206 C 
HETATM  134  C   UNL     1      -3.181   7.166   0.466  1.00  0.00     0.272 C 
HETATM  135  C   UNL     1      -2.145   7.447   1.583  1.00  0.00     0.184 C 
BRANCH 131 136
HETATM  136  C   UNL     1      -1.606   3.674   1.652  1.00  0.00     0.198 C 
BRANCH 136 137
HETATM  137  O   UNL     1      -1.202   2.808   2.711  1.00  0.00    -0.398 OA
HETATM  138  H   UNL     1      -0.569   2.172   2.321  1.00  0.00     0.209 HD
ENDBRANCH 136 137
ENDBRANCH 131 136
BRANCH 134 139
HETATM  139  N   UNL     1      -4.264   8.170   0.510  1.00  0.00     0.087 N 
HETATM  140  H   UNL     1      -3.919   9.018   0.043  1.00  0.00     0.313 HD
HETATM  141  H   UNL     1      -4.461   8.460   1.466  1.00  0.00     0.313 HD
ENDBRANCH 134 139
BRANCH 135 142
HETATM  142  O   UNL     1      -2.842   7.818   2.792  1.00  0.00    -0.391 OA
HETATM  143  H   UNL     1      -3.776   7.559   2.672  1.00  0.00     0.210 HD
ENDBRANCH 135 142
ENDBRANCH 129 130
ENDBRANCH 123 129
BRANCH 124 144
HETATM  144  N   UNL     1       1.392   4.557   3.573  1.00  0.00     0.090 N 
HETATM  145  H   UNL     1       0.807   3.943   3.006  1.00  0.00     0.313 HD
HETATM  146  H   UNL     1       2.034   3.900   4.039  1.00  0.00     0.313 HD
ENDBRANCH 124 144
BRANCH 125 147
HETATM  147  O   UNL     1       2.174   6.954   5.103  1.00  0.00    -0.391 OA
HETATM  148  H   UNL     1       3.117   6.699   5.128  1.00  0.00     0.210 HD
ENDBRANCH 125 147
ENDBRANCH 119 120
ENDBRANCH   5 119
TORSDOF 58
ENDMDL
MODEL 6
REMARK VINA RESULT:      -7.0      2.171      5.173
REMARK WARNING: 32 MAX_TORS EXCEEDED!!!
REMARK  58 active torsions:
REMARK  status: ('A' for Active; 'I' for Inactive)
REMARK    1  A    between atoms: C_1  and  O_30 
REMARK    2  A    between atoms: C_2  and  C_6 
REMARK    3  A    between atoms: C_3  and  O_9 
REMARK    4  A    between atoms: C_4  and  N_11 
REMARK    5  A    between atoms: C_5  and  O_12 
REMARK    6  A    between atoms: C_6  and  O_7 
REMARK    7  A    between atoms: N_11  and  C_118 
REMARK    8  A    between atoms: O_12  and  C_20 
REMARK    9  A    between atoms: O_14  and  C_18 
REMARK   10  A    between atoms: C_16  and  C_23 
REMARK   11  A    between atoms: O_17  and  C_23 
REMARK   12  A    between atoms: O_19  and  C_22 
REMARK   13  A    between atoms: O_19  and  C_42 
REMARK   14  A    between atoms: N_21  and  C_24 
REMARK   15  A    between atoms: O_26  and  C_29 
REMARK   16  A    between atoms: C_28  and  C_34 
REMARK   17  A    between atoms: O_30  and  C_33 
REMARK   18  A    between atoms: C_31  and  O_53 
REMARK   19  A    between atoms: N_32  and  C_35 
REMARK   20  A    between atoms: C_34  and  O_65 
REMARK   21  A    between atoms: O_37  and  C_41 
REMARK   22  A    between atoms: C_39  and  C_45 
REMARK   23  A    between atoms: O_40  and  C_45 
REMARK   24  A    between atoms: N_43  and  C_46 
REMARK   25  A    between atoms: O_48  and  C_52 
REMARK   26  A    between atoms: C_50  and  C_57 
REMARK   27  A    between atoms: O_51  and  C_57 
REMARK   28  A    between atoms: O_53  and  C_56 
REMARK   29  A    between atoms: N_55  and  C_58 
REMARK   30  A    between atoms: N_55  and  C_71 
REMARK   31  A    between atoms: C_71  and  C_73 
REMARK   32  A    between atoms: C_73  and  C_74 
REMARK   33  A    between atoms: C_73  and  N_87 
REMARK   34  A    between atoms: C_74  and  C_75 
REMARK   35  A    between atoms: C_75  and  C_76 
REMARK   36  A    between atoms: C_75  and  N_101 
REMARK   37  A    between atoms: C_76  and  C_77 
REMARK   38  A    between atoms: C_77  and  C_78 
REMARK   39  A    between atoms: C_77  and  N_91 
REMARK   40  A    between atoms: C_78  and  C_79 
REMARK   41  A    between atoms: C_79  and  C_80 
REMARK   42  A    between atoms: C_79  and  N_106 
REMARK   43  A    between atoms: C_80  and  C_81 
REMARK   44  A    between atoms: C_81  and  N_96 
REMARK   45  A    between atoms: N_113  and  C_119 
REMARK   46  A    between atoms: C_118  and  C_119 
REMARK   47  A    between atoms: C_119  and  C_126 
REMARK   48  A    between atoms: N_122  and  C_128 
REMARK   49  A    between atoms: C_124  and  C_128 
REMARK   50  A    between atoms: C_124  and  C_130 
REMARK   51  A    between atoms: N_125  and  C_135 
REMARK   52  A    between atoms: C_126  and  C_130 
REMARK   53  A    between atoms: C_128  and  C_132 
REMARK   54  A    between atoms: N_129  and  C_130 
REMARK   55  A    between atoms: C_132  and  C_137 
REMARK   56  A    between atoms: C_135  and  C_136 
REMARK   57  A    between atoms: C_136  and  C_137 
REMARK   58  A    between atoms: C_137  and  N_140 
ROOT
HETATM    1  C   UNL     1       0.916   6.387  11.808  1.00  0.00     0.186 C 
HETATM    2  C   UNL     1       0.217   5.263  10.951  1.00  0.00     0.179 C 
HETATM    3  C   UNL     1       1.728   7.439  10.987  1.00  0.00     0.188 C 
HETATM    4  C   UNL     1       1.169   7.662   9.551  1.00  0.00     0.306 C 
HETATM    5  C   UNL     1       1.225   6.199   9.003  1.00  0.00     0.296 C 
HETATM    6  O   UNL     1       0.113   5.499   9.521  1.00  0.00    -0.349 OA
ENDROOT
BRANCH   1   7
HETATM    7  O   UNL     1      -0.065   7.043  12.632  1.00  0.00    -0.348 OA
BRANCH   7   8
HETATM    8  C   UNL     1       0.007   6.705  14.031  1.00  0.00     0.296 C 
HETATM    9  O   UNL     1       1.079   5.770  14.184  1.00  0.00    -0.349 OA
HETATM   10  C   UNL     1       1.271   5.254  15.518  1.00  0.00     0.179 C 
HETATM   11  C   UNL     1      -0.046   4.748  16.148  1.00  0.00     0.186 C 
HETATM   12  C   UNL     1      -1.164   4.701  15.094  1.00  0.00     0.187 C 
HETATM   13  C   UNL     1      -1.361   6.108  14.511  1.00  0.00     0.303 C 
BRANCH  10  14
HETATM   14  C   UNL     1       1.968   6.299  16.410  1.00  0.00     0.198 C 
BRANCH  14  15
HETATM   15  O   UNL     1       3.282   6.600  15.946  1.00  0.00    -0.398 OA
HETATM   16  H   UNL     1       3.200   6.951  15.040  1.00  0.00     0.209 HD
ENDBRANCH  14  15
ENDBRANCH  10  14
BRANCH  11  17
HETATM   17  O   UNL     1       0.079   3.431  16.691  1.00  0.00    -0.348 OA
BRANCH  17  18
HETATM   18  C   UNL     1       1.379   2.860  16.608  1.00  0.00     0.296 C 
HETATM   19  O   UNL     1       1.520   2.187  15.362  1.00  0.00    -0.351 OA
HETATM   20  C   UNL     1       2.262   0.957  15.371  1.00  0.00     0.150 C 
HETATM   21  C   UNL     1       3.461   1.031  16.312  1.00  0.00     0.068 C 
HETATM   22  C   UNL     1       3.065   1.427  17.740  1.00  0.00     0.158 C 
HETATM   23  C   UNL     1       1.627   1.991  17.875  1.00  0.00     0.303 C 
BRANCH  20  24
HETATM   24  C   UNL     1       2.704   0.638  13.932  1.00  0.00     0.196 C 
BRANCH  24  25
HETATM   25  O   UNL     1       3.322  -0.647  13.891  1.00  0.00    -0.398 OA
HETATM   26  H   UNL     1       4.208  -0.531  13.507  1.00  0.00     0.209 HD
ENDBRANCH  24  25
ENDBRANCH  20  24
BRANCH  22  27
HETATM   27  O   UNL     1       3.233   0.299  18.608  1.00  0.00    -0.393 OA
HETATM   28  H   UNL     1       2.583  -0.363  18.289  1.00  0.00     0.210 HD
ENDBRANCH  22  27
BRANCH  23  29
HETATM   29  N   UNL     1       0.702   0.851  18.137  1.00  0.00     0.097 N 
HETATM   30  H   UNL     1       0.681   0.290  17.281  1.00  0.00     0.316 HD
BRANCH  29  31
HETATM   31  C   UNL     1      -0.712   1.188  18.384  1.00  0.00     0.296 C 
BRANCH  31  32
HETATM   32  C   UNL     1      -1.774   0.514  17.421  1.00  0.00     0.120 C 
BRANCH  32  33
HETATM   33  C   UNL     1      -1.049  -0.522  16.490  1.00  0.00     0.053 C 
BRANCH  33  34
HETATM   34  C   UNL     1      -1.232  -2.079  16.696  1.00  0.00     0.094 C 
BRANCH  34  35
HETATM   35  C   UNL     1      -0.574  -2.829  15.441  1.00  0.00     0.051 C 
BRANCH  35  36
HETATM   36  C   UNL     1      -1.270  -2.984  14.044  1.00  0.00     0.094 C 
BRANCH  36  37
HETATM   37  C   UNL     1      -2.737  -3.536  14.126  1.00  0.00     0.051 C 
BRANCH  37  38
HETATM   38  C   UNL     1      -2.870  -5.056  14.449  1.00  0.00     0.094 C 
BRANCH  38  39
HETATM   39  C   UNL     1      -2.431  -5.967  13.247  1.00  0.00     0.051 C 
BRANCH  39  40
HETATM   40  C   UNL     1      -1.157  -5.682  12.404  1.00  0.00     0.089 C 
HETATM   41  C   UNL     1      -0.093  -6.751  12.710  1.00  0.00     0.033 C 
BRANCH  40  42
HETATM   42  N   UNL     1      -1.335  -5.619  10.961  1.00  0.00    -0.334 N 
HETATM   43  C   UNL     1      -0.377  -5.941  10.036  1.00  0.00     0.210 A 
HETATM   44  N   UNL     1      -0.828  -5.810   8.810  1.00  0.00    -0.254 NA
HETATM   45  C   UNL     1      -2.129  -5.402   8.949  1.00  0.00     0.150 A 
HETATM   46  C   UNL     1      -2.474  -5.294  10.278  1.00  0.00     0.082 A 
ENDBRANCH  40  42
ENDBRANCH  39  40
ENDBRANCH  38  39
BRANCH  38  47
HETATM   47  N   UNL     1      -2.435  -5.476  15.773  1.00  0.00    -0.339 N 
HETATM   48  C   UNL     1      -1.219  -6.017  16.094  1.00  0.00     0.209 C 
HETATM   49  N   UNL     1      -1.191  -6.461  17.327  1.00  0.00    -0.254 NA
HETATM   50  C   UNL     1      -2.361  -6.046  17.884  1.00  0.00     0.142 C 
HETATM   51  C   UNL     1      -3.133  -5.363  16.966  1.00  0.00     0.026 C 
HETATM   52  C   UNL     1      -4.388  -4.612  17.215  1.00  0.00     0.070 C 
ENDBRANCH  38  47
ENDBRANCH  37  38
ENDBRANCH  36  37
BRANCH  36  53
HETATM   53  N   UNL     1      -1.326  -1.712  13.317  1.00  0.00    -0.345 N 
HETATM   54  C   UNL     1      -0.262  -1.000  12.837  1.00  0.00     0.209 A 
HETATM   55  N   UNL     1      -0.656   0.023  12.113  1.00  0.00    -0.255 NA
HETATM   56  C   UNL     1      -2.020  -0.032  12.109  1.00  0.00     0.135 A 
HETATM   57  C   UNL     1      -2.461  -1.120  12.821  1.00  0.00     0.111 A 
ENDBRANCH  36  53
ENDBRANCH  35  36
ENDBRANCH  34  35
BRANCH  34  58
HETATM   58  N   UNL     1      -1.079  -2.589  18.064  1.00  0.00    -0.339 N 
HETATM   59  C   UNL     1      -2.078  -2.500  19.011  1.00  0.00     0.209 C 
HETATM   60  N   UNL     1      -1.727  -2.941  20.191  1.00  0.00    -0.254 NA
HETATM   61  C   UNL     1      -0.407  -3.206  20.073  1.00  0.00     0.142 C 
HETATM   62  C   UNL     1       0.061  -2.878  18.813  1.00  0.00     0.026 C 
HETATM   63  C   UNL     1       1.498  -2.791  18.453  1.00  0.00     0.070 C 
ENDBRANCH  34  58
ENDBRANCH  33  34
ENDBRANCH  32  33
BRANCH  32  64
HETATM   64  N   UNL     1      -2.728   1.418  16.774  1.00  0.00    -0.344 N 
HETATM   65  C   UNL     1      -3.217   1.416  15.493  1.00  0.00     0.111 A 
HETATM   66  C   UNL     1      -4.064   2.492  15.397  1.00  0.00     0.135 A 
HETATM   67  N   UNL     1      -4.081   3.186  16.566  1.00  0.00    -0.255 NA
HETATM   68  C   UNL     1      -3.275   2.529  17.366  1.00  0.00     0.209 A 
ENDBRANCH  32  64
ENDBRANCH  31  32
ENDBRANCH  29  31
ENDBRANCH  23  29
ENDBRANCH  17  18
ENDBRANCH  11  17
BRANCH  12  69
HETATM   69  O   UNL     1      -0.880   3.752  14.051  1.00  0.00    -0.391 OA
HETATM   70  H   UNL     1      -1.333   2.917  14.283  1.00  0.00     0.210 HD
ENDBRANCH  12  69
BRANCH  13  71
HETATM   71  N   UNL     1      -2.420   6.079  13.482  1.00  0.00     0.090 N 
HETATM   72  H   UNL     1      -3.276   5.812  13.979  1.00  0.00     0.313 HD
HETATM   73  H   UNL     1      -2.214   5.253  12.905  1.00  0.00     0.313 HD
ENDBRANCH  13  71
ENDBRANCH   7   8
ENDBRANCH   1   7
BRANCH   2  74
HETATM   74  C   UNL     1       0.932   3.910  11.194  1.00  0.00     0.198 C 
BRANCH  74  75
HETATM   75  O   UNL     1       0.013   2.919  11.637  1.00  0.00    -0.398 OA
HETATM   76  H   UNL     1      -0.853   3.111  11.238  1.00  0.00     0.209 HD
ENDBRANCH  74  75
ENDBRANCH   2  74
BRANCH   3  77
HETATM   77  O   UNL     1       1.922   8.661  11.704  1.00  0.00    -0.391 OA
HETATM   78  H   UNL     1       2.245   9.335  11.082  1.00  0.00     0.210 HD
ENDBRANCH   3  77
BRANCH   4  79
HETATM   79  N   UNL     1      -0.089   8.462   9.675  1.00  0.00     0.097 N 
HETATM   80  H   UNL     1      -0.279   8.646  10.655  1.00  0.00     0.316 HD
BRANCH  79  81
HETATM   81  C   UNL     1      -0.266   9.670   8.850  1.00  0.00     0.296 C 
BRANCH  81  82
HETATM   82  C   UNL     1      -0.378  11.078   9.646  1.00  0.00     0.120 C 
BRANCH  82  83
HETATM   83  N   UNL     1      -1.147  12.091   8.927  1.00  0.00    -0.344 N 
HETATM   84  C   UNL     1      -1.718  13.237   9.420  1.00  0.00     0.111 A 
HETATM   85  C   UNL     1      -2.358  13.825   8.353  1.00  0.00     0.135 A 
HETATM   86  N   UNL     1      -2.230  13.053   7.234  1.00  0.00    -0.255 NA
HETATM   87  C   UNL     1      -1.532  12.009   7.614  1.00  0.00     0.209 A 
ENDBRANCH  82  83
BRANCH  82  88
HETATM   88  C   UNL     1      -0.771  10.846  11.153  1.00  0.00     0.053 C 
BRANCH  88  89
HETATM   89  C   UNL     1      -0.021  11.435  12.424  1.00  0.00     0.094 C 
BRANCH  89  90
HETATM   90  C   UNL     1       1.066  12.576  12.148  1.00  0.00     0.051 C 
BRANCH  90  91
HETATM   91  C   UNL     1       1.983  13.117  13.342  1.00  0.00     0.094 C 
BRANCH  91  92
HETATM   92  N   UNL     1       1.547  14.427  13.841  1.00  0.00    -0.345 N 
HETATM   93  C   UNL     1       0.277  14.939  13.794  1.00  0.00     0.111 A 
HETATM   94  C   UNL     1       0.407  16.264  14.139  1.00  0.00     0.135 A 
HETATM   95  N   UNL     1       1.717  16.573  14.374  1.00  0.00    -0.255 NA
HETATM   96  C   UNL     1       2.379  15.452  14.203  1.00  0.00     0.209 A 
ENDBRANCH  91  92
BRANCH  91  97
HETATM   97  C   UNL     1       3.523  13.232  13.020  1.00  0.00     0.051 C 
BRANCH  97  98
HETATM   98  C   UNL     1       4.481  12.112  13.589  1.00  0.00     0.094 C 
BRANCH  98  99
HETATM   99  C   UNL     1       5.991  12.608  13.608  1.00  0.00     0.051 C 
BRANCH  99 100
HETATM  100  C   UNL     1       6.399  14.115  13.663  1.00  0.00     0.089 C 
HETATM  101  C   UNL     1       7.421  14.343  14.795  1.00  0.00     0.033 C 
BRANCH 100 102
HETATM  102  N   UNL     1       6.971  14.665  12.440  1.00  0.00    -0.334 N 
HETATM  103  C   UNL     1       7.329  13.977  11.312  1.00  0.00     0.082 A 
HETATM  104  C   UNL     1       7.814  14.939  10.454  1.00  0.00     0.150 A 
HETATM  105  N   UNL     1       7.797  16.177  11.042  1.00  0.00    -0.254 NA
HETATM  106  C   UNL     1       7.281  15.985  12.234  1.00  0.00     0.210 A 
ENDBRANCH 100 102
ENDBRANCH  99 100
ENDBRANCH  98  99
BRANCH  98 107
HETATM  107  N   UNL     1       4.055  11.326  14.741  1.00  0.00    -0.339 N 
HETATM  108  C   UNL     1       3.703  10.004  14.751  1.00  0.00     0.209 C 
HETATM  109  N   UNL     1       2.844   9.743  15.710  1.00  0.00    -0.254 NA
HETATM  110  C   UNL     1       2.854  10.847  16.505  1.00  0.00     0.142 C 
HETATM  111  C   UNL     1       3.716  11.798  15.998  1.00  0.00     0.026 C 
HETATM  112  C   UNL     1       4.257  12.985  16.690  1.00  0.00     0.070 C 
ENDBRANCH  98 107
ENDBRANCH  97  98
ENDBRANCH  91  97
ENDBRANCH  90  91
ENDBRANCH  89  90
BRANCH  89 113
HETATM  113  N   UNL     1      -0.750  11.454  13.705  1.00  0.00    -0.339 N 
HETATM  114  C   UNL     1      -1.941  12.000  14.144  1.00  0.00     0.026 C 
HETATM  115  C   UNL     1      -2.073  11.586  15.460  1.00  0.00     0.142 C 
HETATM  116  C   UNL     1      -2.957  12.806  13.440  1.00  0.00     0.070 C 
HETATM  117  N   UNL     1      -1.134  10.664  15.784  1.00  0.00    -0.254 NA
HETATM  118  C   UNL     1      -0.425  10.548  14.703  1.00  0.00     0.209 C 
ENDBRANCH  89 113
ENDBRANCH  88  89
ENDBRANCH  82  88
ENDBRANCH  81  82
ENDBRANCH  79  81
ENDBRANCH   4  79
BRANCH   5 119
HETATM  119  O   UNL     1       1.383   6.136   7.576  1.00  0.00    -0.348 OA
BRANCH 119 120
HETATM  120  C   UNL     1       0.198   5.610   6.901  1.00  0.00     0.186 C 
HETATM  121  C   UNL     1      -0.839   6.716   6.585  1.00  0.00     0.179 C 
HETATM  122  O   UNL     1      -0.959   6.989   5.179  1.00  0.00    -0.349 OA
HETATM  123  C   UNL     1      -1.306   5.882   4.340  1.00  0.00     0.296 C 
HETATM  124  C   UNL     1      -0.563   4.559   4.726  1.00  0.00     0.303 C 
HETATM  125  C   UNL     1       0.649   4.850   5.637  1.00  0.00     0.187 C 
BRANCH 121 126
HETATM  126  C   UNL     1      -2.233   6.379   7.155  1.00  0.00     0.198 C 
BRANCH 126 127
HETATM  127  O   UNL     1      -2.329   5.002   7.506  1.00  0.00    -0.398 OA
HETATM  128  H   UNL     1      -2.311   4.478   6.681  1.00  0.00     0.209 HD
ENDBRANCH 126 127
ENDBRANCH 121 126
BRANCH 123 129
HETATM  129  O   UNL     1      -0.979   6.255   2.995  1.00  0.00    -0.348 OA
BRANCH 129 130
HETATM  130  C   UNL     1      -2.069   6.748   2.198  1.00  0.00     0.186 C 
HETATM  131  C   UNL     1      -1.677   6.792   0.700  1.00  0.00     0.176 C 
HETATM  132  O   UNL     1      -2.747   6.350  -0.173  1.00  0.00    -0.379 OA
HETATM  133  C   UNL     1      -4.034   6.851   0.195  1.00  0.00     0.206 C 
HETATM  134  C   UNL     1      -4.492   6.288   1.557  1.00  0.00     0.272 C 
HETATM  135  C   UNL     1      -3.276   5.797   2.382  1.00  0.00     0.184 C 
BRANCH 131 136
HETATM  136  C   UNL     1      -1.213   8.181   0.239  1.00  0.00     0.198 C 
BRANCH 136 137
HETATM  137  O   UNL     1      -0.112   8.617   1.035  1.00  0.00    -0.398 OA
HETATM  138  H   UNL     1       0.618   8.811   0.414  1.00  0.00     0.209 HD
ENDBRANCH 136 137
ENDBRANCH 131 136
BRANCH 134 139
HETATM  139  N   UNL     1      -5.493   5.207   1.432  1.00  0.00     0.087 N 
HETATM  140  H   UNL     1      -6.407   5.648   1.274  1.00  0.00     0.313 HD
HETATM  141  H   UNL     1      -5.596   4.696   2.308  1.00  0.00     0.313 HD
ENDBRANCH 134 139
BRANCH 135 142
HETATM  142  O   UNL     1      -2.949   4.448   1.986  1.00  0.00    -0.391 OA
HETATM  143  H   UNL     1      -2.058   4.257   2.337  1.00  0.00     0.210 HD
ENDBRANCH 135 142
ENDBRANCH 129 130
ENDBRANCH 123 129
BRANCH 124 144
HETATM  144  N   UNL     1      -0.199   3.732   3.553  1.00  0.00     0.090 N 
HETATM  145  H   UNL     1      -0.608   2.802   3.655  1.00  0.00     0.313 HD
HETATM  146  H   UNL     1       0.810   3.553   3.655  1.00  0.00     0.313 HD
ENDBRANCH 124 144
BRANCH 125 147
HETATM  147  O   UNL     1       1.682   5.537   4.930  1.00  0.00    -0.391 OA
HETATM  148  H   UNL     1       2.526   5.110   5.177  1.00  0.00     0.210 HD
ENDBRANCH 125 147
ENDBRANCH 119 120
ENDBRANCH   5 119
TORSDOF 58
ENDMDL
MODEL 7
REMARK VINA RESULT:      -7.0      2.342      5.486
REMARK WARNING: 32 MAX_TORS EXCEEDED!!!
REMARK  58 active torsions:
REMARK  status: ('A' for Active; 'I' for Inactive)
REMARK    1  A    between atoms: C_1  and  O_30 
REMARK    2  A    between atoms: C_2  and  C_6 
REMARK    3  A    between atoms: C_3  and  O_9 
REMARK    4  A    between atoms: C_4  and  N_11 
REMARK    5  A    between atoms: C_5  and  O_12 
REMARK    6  A    between atoms: C_6  and  O_7 
REMARK    7  A    between atoms: N_11  and  C_118 
REMARK    8  A    between atoms: O_12  and  C_20 
REMARK    9  A    between atoms: O_14  and  C_18 
REMARK   10  A    between atoms: C_16  and  C_23 
REMARK   11  A    between atoms: O_17  and  C_23 
REMARK   12  A    between atoms: O_19  and  C_22 
REMARK   13  A    between atoms: O_19  and  C_42 
REMARK   14  A    between atoms: N_21  and  C_24 
REMARK   15  A    between atoms: O_26  and  C_29 
REMARK   16  A    between atoms: C_28  and  C_34 
REMARK   17  A    between atoms: O_30  and  C_33 
REMARK   18  A    between atoms: C_31  and  O_53 
REMARK   19  A    between atoms: N_32  and  C_35 
REMARK   20  A    between atoms: C_34  and  O_65 
REMARK   21  A    between atoms: O_37  and  C_41 
REMARK   22  A    between atoms: C_39  and  C_45 
REMARK   23  A    between atoms: O_40  and  C_45 
REMARK   24  A    between atoms: N_43  and  C_46 
REMARK   25  A    between atoms: O_48  and  C_52 
REMARK   26  A    between atoms: C_50  and  C_57 
REMARK   27  A    between atoms: O_51  and  C_57 
REMARK   28  A    between atoms: O_53  and  C_56 
REMARK   29  A    between atoms: N_55  and  C_58 
REMARK   30  A    between atoms: N_55  and  C_71 
REMARK   31  A    between atoms: C_71  and  C_73 
REMARK   32  A    between atoms: C_73  and  C_74 
REMARK   33  A    between atoms: C_73  and  N_87 
REMARK   34  A    between atoms: C_74  and  C_75 
REMARK   35  A    between atoms: C_75  and  C_76 
REMARK   36  A    between atoms: C_75  and  N_101 
REMARK   37  A    between atoms: C_76  and  C_77 
REMARK   38  A    between atoms: C_77  and  C_78 
REMARK   39  A    between atoms: C_77  and  N_91 
REMARK   40  A    between atoms: C_78  and  C_79 
REMARK   41  A    between atoms: C_79  and  C_80 
REMARK   42  A    between atoms: C_79  and  N_106 
REMARK   43  A    between atoms: C_80  and  C_81 
REMARK   44  A    between atoms: C_81  and  N_96 
REMARK   45  A    between atoms: N_113  and  C_119 
REMARK   46  A    between atoms: C_118  and  C_119 
REMARK   47  A    between atoms: C_119  and  C_126 
REMARK   48  A    between atoms: N_122  and  C_128 
REMARK   49  A    between atoms: C_124  and  C_128 
REMARK   50  A    between atoms: C_124  and  C_130 
REMARK   51  A    between atoms: N_125  and  C_135 
REMARK   52  A    between atoms: C_126  and  C_130 
REMARK   53  A    between atoms: C_128  and  C_132 
REMARK   54  A    between atoms: N_129  and  C_130 
REMARK   55  A    between atoms: C_132  and  C_137 
REMARK   56  A    between atoms: C_135  and  C_136 
REMARK   57  A    between atoms: C_136  and  C_137 
REMARK   58  A    between atoms: C_137  and  N_140 
ROOT
HETATM    1  C   UNL     1       0.854   6.818  11.993  1.00  0.00     0.186 C 
HETATM    2  C   UNL     1       0.177   5.850  10.948  1.00  0.00     0.179 C 
HETATM    3  C   UNL     1       1.671   7.997  11.373  1.00  0.00     0.188 C 
HETATM    4  C   UNL     1       1.134   8.454   9.986  1.00  0.00     0.306 C 
HETATM    5  C   UNL     1       1.210   7.104   9.202  1.00  0.00     0.296 C 
HETATM    6  O   UNL     1       0.094   6.321   9.576  1.00  0.00    -0.349 OA
ENDROOT
BRANCH   1   7
HETATM    7  O   UNL     1      -0.146   7.323  12.899  1.00  0.00    -0.348 OA
BRANCH   7   8
HETATM    8  C   UNL     1      -0.070   6.783  14.233  1.00  0.00     0.296 C 
HETATM    9  O   UNL     1       0.989   5.822  14.239  1.00  0.00    -0.349 OA
HETATM   10  C   UNL     1       1.182   5.115  15.482  1.00  0.00     0.179 C 
HETATM   11  C   UNL     1      -0.138   4.539  16.042  1.00  0.00     0.186 C 
HETATM   12  C   UNL     1      -1.262   4.660  15.000  1.00  0.00     0.187 C 
HETATM   13  C   UNL     1      -1.443   6.140  14.631  1.00  0.00     0.303 C 
BRANCH  10  14
HETATM   14  C   UNL     1       1.898   6.010  16.512  1.00  0.00     0.198 C 
BRANCH  14  15
HETATM   15  O   UNL     1       1.010   6.461  17.532  1.00  0.00    -0.398 OA
HETATM   16  H   UNL     1       1.550   6.697  18.309  1.00  0.00     0.209 HD
ENDBRANCH  14  15
ENDBRANCH  10  14
BRANCH  11  17
HETATM   17  O   UNL     1      -0.028   3.156  16.386  1.00  0.00    -0.348 OA
BRANCH  17  18
HETATM   18  C   UNL     1       1.156   2.509  15.934  1.00  0.00     0.296 C 
HETATM   19  O   UNL     1       0.870   1.778  14.746  1.00  0.00    -0.351 OA
HETATM   20  C   UNL     1       1.526   0.510  14.594  1.00  0.00     0.150 C 
HETATM   21  C   UNL     1       2.962   0.555  15.108  1.00  0.00     0.068 C 
HETATM   22  C   UNL     1       3.052   1.030  16.564  1.00  0.00     0.158 C 
HETATM   23  C   UNL     1       1.753   1.680  17.108  1.00  0.00     0.303 C 
BRANCH  20  24
HETATM   24  C   UNL     1       1.481   0.108  13.109  1.00  0.00     0.196 C 
BRANCH  24  25
HETATM   25  O   UNL     1       2.442  -0.916  12.857  1.00  0.00    -0.398 OA
HETATM   26  H   UNL     1       3.117  -0.541  12.265  1.00  0.00     0.209 HD
ENDBRANCH  24  25
ENDBRANCH  20  24
BRANCH  22  27
HETATM   27  O   UNL     1       3.437  -0.069  17.399  1.00  0.00    -0.393 OA
HETATM   28  H   UNL     1       4.324  -0.334  17.074  1.00  0.00     0.210 HD
ENDBRANCH  22  27
BRANCH  23  29
HETATM   29  N   UNL     1       0.911   0.606  17.709  1.00  0.00     0.097 N 
HETATM   30  H   UNL     1       0.784  -0.105  16.983  1.00  0.00     0.316 HD
BRANCH  29  31
HETATM   31  C   UNL     1      -0.461   0.978  18.097  1.00  0.00     0.296 C 
BRANCH  31  32
HETATM   32  C   UNL     1      -1.632   0.179  17.391  1.00  0.00     0.120 C 
BRANCH  32  33
HETATM   33  C   UNL     1      -1.091  -1.210  16.897  1.00  0.00     0.053 C 
BRANCH  33  34
HETATM   34  C   UNL     1      -0.650  -2.330  17.923  1.00  0.00     0.094 C 
BRANCH  34  35
HETATM   35  C   UNL     1      -1.895  -3.312  18.156  1.00  0.00     0.051 C 
BRANCH  35  36
HETATM   36  C   UNL     1      -2.886  -3.761  17.027  1.00  0.00     0.094 C 
BRANCH  36  37
HETATM   37  C   UNL     1      -2.968  -5.318  16.840  1.00  0.00     0.051 C 
BRANCH  37  38
HETATM   38  C   UNL     1      -2.656  -5.843  15.405  1.00  0.00     0.094 C 
BRANCH  38  39
HETATM   39  C   UNL     1      -2.006  -4.745  14.490  1.00  0.00     0.051 C 
BRANCH  39  40
HETATM   40  C   UNL     1      -2.462  -4.501  13.024  1.00  0.00     0.089 C 
HETATM   41  C   UNL     1      -2.288  -3.012  12.677  1.00  0.00     0.033 C 
BRANCH  40  42
HETATM   42  N   UNL     1      -1.793  -5.287  11.998  1.00  0.00    -0.334 N 
HETATM   43  C   UNL     1      -2.158  -5.331  10.678  1.00  0.00     0.210 A 
HETATM   44  N   UNL     1      -1.360  -6.106   9.982  1.00  0.00    -0.254 NA
HETATM   45  C   UNL     1      -0.437  -6.570  10.884  1.00  0.00     0.150 A 
HETATM   46  C   UNL     1      -0.674  -6.059  12.141  1.00  0.00     0.082 A 
ENDBRANCH  40  42
ENDBRANCH  39  40
ENDBRANCH  38  39
BRANCH  38  47
HETATM   47  N   UNL     1      -2.087  -7.181  15.316  1.00  0.00    -0.339 N 
HETATM   48  C   UNL     1      -1.175  -7.732  16.174  1.00  0.00     0.209 C 
HETATM   49  N   UNL     1      -0.717  -8.878  15.731  1.00  0.00    -0.254 NA
HETATM   50  C   UNL     1      -1.473  -9.168  14.638  1.00  0.00     0.142 C 
HETATM   51  C   UNL     1      -2.391  -8.167  14.390  1.00  0.00     0.026 C 
HETATM   52  C   UNL     1      -3.501  -8.177  13.406  1.00  0.00     0.070 C 
ENDBRANCH  38  47
ENDBRANCH  37  38
ENDBRANCH  36  37
BRANCH  36  53
HETATM   53  N   UNL     1      -4.250  -3.282  17.272  1.00  0.00    -0.345 N 
HETATM   54  C   UNL     1      -5.290  -4.011  17.779  1.00  0.00     0.209 A 
HETATM   55  N   UNL     1      -6.340  -3.255  18.007  1.00  0.00    -0.255 NA
HETATM   56  C   UNL     1      -5.968  -1.990  17.650  1.00  0.00     0.135 A 
HETATM   57  C   UNL     1      -4.662  -1.975  17.223  1.00  0.00     0.111 A 
ENDBRANCH  36  53
ENDBRANCH  35  36
ENDBRANCH  34  35
BRANCH  34  58
HETATM   58  N   UNL     1       0.721  -2.842  17.795  1.00  0.00    -0.339 N 
HETATM   59  C   UNL     1       1.669  -2.694  18.786  1.00  0.00     0.209 C 
HETATM   60  N   UNL     1       2.851  -3.148  18.457  1.00  0.00    -0.254 NA
HETATM   61  C   UNL     1       2.731  -3.487  17.154  1.00  0.00     0.142 C 
HETATM   62  C   UNL     1       1.469  -3.190  16.671  1.00  0.00     0.026 C 
HETATM   63  C   UNL     1       1.106  -3.184  15.233  1.00  0.00     0.070 C 
ENDBRANCH  34  58
ENDBRANCH  33  34
ENDBRANCH  32  33
BRANCH  32  64
HETATM   64  N   UNL     1      -2.453   0.935  16.441  1.00  0.00    -0.344 N 
HETATM   65  C   UNL     1      -3.455   1.843  16.668  1.00  0.00     0.111 A 
HETATM   66  C   UNL     1      -3.909   2.238  15.434  1.00  0.00     0.135 A 
HETATM   67  N   UNL     1      -3.250   1.571  14.451  1.00  0.00    -0.255 NA
HETATM   68  C   UNL     1      -2.392   0.800  15.076  1.00  0.00     0.209 A 
ENDBRANCH  32  64
ENDBRANCH  31  32
ENDBRANCH  29  31
ENDBRANCH  23  29
ENDBRANCH  17  18
ENDBRANCH  11  17
BRANCH  12  69
HETATM   69  O   UNL     1      -0.996   3.871  13.829  1.00  0.00    -0.391 OA
HETATM   70  H   UNL     1      -1.388   2.986  13.976  1.00  0.00     0.210 HD
ENDBRANCH  12  69
BRANCH  13  71
HETATM   71  N   UNL     1      -2.509   6.275  13.616  1.00  0.00     0.090 N 
HETATM   72  H   UNL     1      -3.183   5.534  13.829  1.00  0.00     0.313 HD
HETATM   73  H   UNL     1      -2.083   5.961  12.734  1.00  0.00     0.313 HD
ENDBRANCH  13  71
ENDBRANCH   7   8
ENDBRANCH   1   7
BRANCH   2  74
HETATM   74  C   UNL     1       0.899   4.479  10.974  1.00  0.00     0.198 C 
BRANCH  74  75
HETATM   75  O   UNL     1      -0.008   3.431  11.295  1.00  0.00    -0.398 OA
HETATM   76  H   UNL     1      -0.728   3.808  11.830  1.00  0.00     0.209 HD
ENDBRANCH  74  75
ENDBRANCH   2  74
BRANCH   3  77
HETATM   77  O   UNL     1       1.844   9.083  12.288  1.00  0.00    -0.391 OA
HETATM   78  H   UNL     1       2.644   9.574  12.034  1.00  0.00     0.210 HD
ENDBRANCH   3  77
BRANCH   4  79
HETATM   79  N   UNL     1      -0.132   9.216  10.220  1.00  0.00     0.097 N 
HETATM   80  H   UNL     1      -0.221   9.431  11.208  1.00  0.00     0.316 HD
BRANCH  79  81
HETATM   81  C   UNL     1      -0.443  10.385   9.379  1.00  0.00     0.296 C 
BRANCH  81  82
HETATM   82  C   UNL     1      -0.520  11.818  10.132  1.00  0.00     0.120 C 
BRANCH  82  83
HETATM   83  N   UNL     1      -1.338  12.802   9.426  1.00  0.00    -0.344 N 
HETATM   84  C   UNL     1      -1.818  12.747   8.143  1.00  0.00     0.111 A 
HETATM   85  C   UNL     1      -2.495  13.929   7.947  1.00  0.00     0.135 A 
HETATM   86  N   UNL     1      -2.408  14.720   9.056  1.00  0.00    -0.255 NA
HETATM   87  C   UNL     1      -1.684  14.037   9.911  1.00  0.00     0.209 A 
ENDBRANCH  82  83
BRANCH  82  88
HETATM   88  C   UNL     1      -0.821  11.634  11.666  1.00  0.00     0.053 C 
BRANCH  88  89
HETATM   89  C   UNL     1      -0.024  12.298  12.870  1.00  0.00     0.094 C 
BRANCH  89  90
HETATM   90  C   UNL     1       1.358  13.015  12.504  1.00  0.00     0.051 C 
BRANCH  90  91
HETATM   91  C   UNL     1       2.473  13.234  13.630  1.00  0.00     0.094 C 
BRANCH  91  92
HETATM   92  N   UNL     1       2.235  14.438  14.435  1.00  0.00    -0.345 N 
HETATM   93  C   UNL     1       1.837  14.481  15.745  1.00  0.00     0.111 A 
HETATM   94  C   UNL     1       1.506  15.794  15.981  1.00  0.00     0.135 A 
HETATM   95  N   UNL     1       1.673  16.543  14.851  1.00  0.00    -0.255 NA
HETATM   96  C   UNL     1       2.123  15.710  13.941  1.00  0.00     0.209 A 
ENDBRANCH  91  92
BRANCH  91  97
HETATM   97  C   UNL     1       3.961  13.308  13.111  1.00  0.00     0.051 C 
BRANCH  97  98
HETATM   98  C   UNL     1       5.090  13.662  14.157  1.00  0.00     0.094 C 
BRANCH  98  99
HETATM   99  C   UNL     1       5.896  12.360  14.588  1.00  0.00     0.051 C 
BRANCH  99 100
HETATM  100  C   UNL     1       5.524  11.491  15.831  1.00  0.00     0.089 C 
HETATM  101  C   UNL     1       5.496  12.369  17.097  1.00  0.00     0.033 C 
BRANCH 100 102
HETATM  102  N   UNL     1       4.248  10.788  15.758  1.00  0.00    -0.334 N 
HETATM  103  C   UNL     1       3.107  11.070  16.460  1.00  0.00     0.082 A 
HETATM  104  C   UNL     1       2.195  10.127  16.039  1.00  0.00     0.150 A 
HETATM  105  N   UNL     1       2.760   9.263  15.138  1.00  0.00    -0.254 NA
HETATM  106  C   UNL     1       3.994   9.687  14.983  1.00  0.00     0.210 A 
ENDBRANCH 100 102
ENDBRANCH  99 100
ENDBRANCH  98  99
BRANCH  98 107
HETATM  107  N   UNL     1       5.885  14.869  13.970  1.00  0.00    -0.339 N 
HETATM  108  C   UNL     1       6.690  15.168  12.906  1.00  0.00     0.209 C 
HETATM  109  N   UNL     1       7.678  15.960  13.258  1.00  0.00    -0.254 NA
HETATM  110  C   UNL     1       7.350  16.404  14.501  1.00  0.00     0.142 C 
HETATM  111  C   UNL     1       6.156  15.847  14.912  1.00  0.00     0.026 C 
HETATM  112  C   UNL     1       5.296  16.283  16.031  1.00  0.00     0.070 C 
ENDBRANCH  98 107
ENDBRANCH  97  98
ENDBRANCH  91  97
ENDBRANCH  90  91
ENDBRANCH  89  90
BRANCH  89 113
HETATM  113  N   UNL     1      -0.804  12.816  14.009  1.00  0.00    -0.339 N 
HETATM  114  C   UNL     1      -1.447  14.006  14.293  1.00  0.00     0.026 C 
HETATM  115  C   UNL     1      -2.052  13.813  15.525  1.00  0.00     0.142 C 
HETATM  116  C   UNL     1      -1.582  15.247  13.507  1.00  0.00     0.070 C 
HETATM  117  N   UNL     1      -1.978  12.516  15.914  1.00  0.00    -0.254 NA
HETATM  118  C   UNL     1      -1.311  11.943  14.959  1.00  0.00     0.209 C 
ENDBRANCH  89 113
ENDBRANCH  88  89
ENDBRANCH  82  88
ENDBRANCH  81  82
ENDBRANCH  79  81
ENDBRANCH   4  79
BRANCH   5 119
HETATM  119  O   UNL     1       1.391   7.281   7.788  1.00  0.00    -0.348 OA
BRANCH 119 120
HETATM  120  C   UNL     1       0.610   6.332   6.996  1.00  0.00     0.186 C 
HETATM  121  C   UNL     1      -0.741   6.928   6.527  1.00  0.00     0.179 C 
HETATM  122  O   UNL     1      -0.793   7.154   5.109  1.00  0.00    -0.349 OA
HETATM  123  C   UNL     1      -0.560   6.017   4.271  1.00  0.00     0.296 C 
HETATM  124  C   UNL     1       0.603   5.102   4.782  1.00  0.00     0.303 C 
HETATM  125  C   UNL     1       1.476   5.843   5.818  1.00  0.00     0.187 C 
BRANCH 121 126
HETATM  126  C   UNL     1      -1.936   6.044   6.942  1.00  0.00     0.198 C 
BRANCH 126 127
HETATM  127  O   UNL     1      -1.505   4.900   7.671  1.00  0.00    -0.398 OA
HETATM  128  H   UNL     1      -1.620   4.116   7.098  1.00  0.00     0.209 HD
ENDBRANCH 126 127
ENDBRANCH 121 126
BRANCH 123 129
HETATM  129  O   UNL     1      -0.254   6.515   2.962  1.00  0.00    -0.348 OA
BRANCH 129 130
HETATM  130  C   UNL     1      -1.203   6.193   1.930  1.00  0.00     0.186 C 
HETATM  131  C   UNL     1      -2.079   4.987   2.348  1.00  0.00     0.176 C 
HETATM  132  O   UNL     1      -3.473   5.154   1.983  1.00  0.00    -0.379 OA
HETATM  133  C   UNL     1      -3.665   5.697   0.675  1.00  0.00     0.206 C 
HETATM  134  C   UNL     1      -3.144   7.147   0.582  1.00  0.00     0.272 C 
HETATM  135  C   UNL     1      -2.107   7.427   1.700  1.00  0.00     0.184 C 
BRANCH 131 136
HETATM  136  C   UNL     1      -1.582   3.653   1.776  1.00  0.00     0.198 C 
BRANCH 136 137
HETATM  137  O   UNL     1      -1.185   2.785   2.837  1.00  0.00    -0.398 OA
HETATM  138  H   UNL     1      -0.300   2.445   2.599  1.00  0.00     0.209 HD
ENDBRANCH 136 137
ENDBRANCH 131 136
BRANCH 134 139
HETATM  139  N   UNL     1      -4.223   8.156   0.624  1.00  0.00     0.087 N 
HETATM  140  H   UNL     1      -4.072   8.737   1.458  1.00  0.00     0.313 HD
HETATM  141  H   UNL     1      -5.132   7.719   0.772  1.00  0.00     0.313 HD
ENDBRANCH 134 139
BRANCH 135 142
HETATM  142  O   UNL     1      -2.803   7.803   2.907  1.00  0.00    -0.391 OA
HETATM  143  H   UNL     1      -3.126   8.716   2.777  1.00  0.00     0.210 HD
ENDBRANCH 135 142
ENDBRANCH 129 130
ENDBRANCH 123 129
BRANCH 124 144
HETATM  144  N   UNL     1       1.407   4.515   3.685  1.00  0.00     0.090 N 
HETATM  145  H   UNL     1       0.861   4.524   2.824  1.00  0.00     0.313 HD
HETATM  146  H   UNL     1       1.470   3.511   3.909  1.00  0.00     0.313 HD
ENDBRANCH 124 144
BRANCH 125 147
HETATM  147  O   UNL     1       2.219   6.903   5.214  1.00  0.00    -0.391 OA
HETATM  148  H   UNL     1       1.823   7.060   4.335  1.00  0.00     0.210 HD
ENDBRANCH 125 147
ENDBRANCH 119 120
ENDBRANCH   5 119
TORSDOF 58
ENDMDL
MODEL 8
REMARK VINA RESULT:      -6.9      2.351      5.533
REMARK WARNING: 32 MAX_TORS EXCEEDED!!!
REMARK  58 active torsions:
REMARK  status: ('A' for Active; 'I' for Inactive)
REMARK    1  A    between atoms: C_1  and  O_30 
REMARK    2  A    between atoms: C_2  and  C_6 
REMARK    3  A    between atoms: C_3  and  O_9 
REMARK    4  A    between atoms: C_4  and  N_11 
REMARK    5  A    between atoms: C_5  and  O_12 
REMARK    6  A    between atoms: C_6  and  O_7 
REMARK    7  A    between atoms: N_11  and  C_118 
REMARK    8  A    between atoms: O_12  and  C_20 
REMARK    9  A    between atoms: O_14  and  C_18 
REMARK   10  A    between atoms: C_16  and  C_23 
REMARK   11  A    between atoms: O_17  and  C_23 
REMARK   12  A    between atoms: O_19  and  C_22 
REMARK   13  A    between atoms: O_19  and  C_42 
REMARK   14  A    between atoms: N_21  and  C_24 
REMARK   15  A    between atoms: O_26  and  C_29 
REMARK   16  A    between atoms: C_28  and  C_34 
REMARK   17  A    between atoms: O_30  and  C_33 
REMARK   18  A    between atoms: C_31  and  O_53 
REMARK   19  A    between atoms: N_32  and  C_35 
REMARK   20  A    between atoms: C_34  and  O_65 
REMARK   21  A    between atoms: O_37  and  C_41 
REMARK   22  A    between atoms: C_39  and  C_45 
REMARK   23  A    between atoms: O_40  and  C_45 
REMARK   24  A    between atoms: N_43  and  C_46 
REMARK   25  A    between atoms: O_48  and  C_52 
REMARK   26  A    between atoms: C_50  and  C_57 
REMARK   27  A    between atoms: O_51  and  C_57 
REMARK   28  A    between atoms: O_53  and  C_56 
REMARK   29  A    between atoms: N_55  and  C_58 
REMARK   30  A    between atoms: N_55  and  C_71 
REMARK   31  A    between atoms: C_71  and  C_73 
REMARK   32  A    between atoms: C_73  and  C_74 
REMARK   33  A    between atoms: C_73  and  N_87 
REMARK   34  A    between atoms: C_74  and  C_75 
REMARK   35  A    between atoms: C_75  and  C_76 
REMARK   36  A    between atoms: C_75  and  N_101 
REMARK   37  A    between atoms: C_76  and  C_77 
REMARK   38  A    between atoms: C_77  and  C_78 
REMARK   39  A    between atoms: C_77  and  N_91 
REMARK   40  A    between atoms: C_78  and  C_79 
REMARK   41  A    between atoms: C_79  and  C_80 
REMARK   42  A    between atoms: C_79  and  N_106 
REMARK   43  A    between atoms: C_80  and  C_81 
REMARK   44  A    between atoms: C_81  and  N_96 
REMARK   45  A    between atoms: N_113  and  C_119 
REMARK   46  A    between atoms: C_118  and  C_119 
REMARK   47  A    between atoms: C_119  and  C_126 
REMARK   48  A    between atoms: N_122  and  C_128 
REMARK   49  A    between atoms: C_124  and  C_128 
REMARK   50  A    between atoms: C_124  and  C_130 
REMARK   51  A    between atoms: N_125  and  C_135 
REMARK   52  A    between atoms: C_126  and  C_130 
REMARK   53  A    between atoms: C_128  and  C_132 
REMARK   54  A    between atoms: N_129  and  C_130 
REMARK   55  A    between atoms: C_132  and  C_137 
REMARK   56  A    between atoms: C_135  and  C_136 
REMARK   57  A    between atoms: C_136  and  C_137 
REMARK   58  A    between atoms: C_137  and  N_140 
ROOT
HETATM    1  C   UNL     1       0.864   6.821  11.981  1.00  0.00     0.186 C 
HETATM    2  C   UNL     1       0.173   5.863  10.935  1.00  0.00     0.179 C 
HETATM    3  C   UNL     1       1.696   7.989  11.363  1.00  0.00     0.188 C 
HETATM    4  C   UNL     1       1.164   8.456   9.977  1.00  0.00     0.306 C 
HETATM    5  C   UNL     1       1.221   7.107   9.190  1.00  0.00     0.296 C 
HETATM    6  O   UNL     1       0.096   6.338   9.564  1.00  0.00    -0.349 OA
ENDROOT
BRANCH   1   7
HETATM    7  O   UNL     1      -0.129   7.337  12.888  1.00  0.00    -0.348 OA
BRANCH   7   8
HETATM    8  C   UNL     1      -0.066   6.786  14.219  1.00  0.00     0.296 C 
HETATM    9  O   UNL     1       0.969   5.798  14.217  1.00  0.00    -0.349 OA
HETATM   10  C   UNL     1       1.144   5.078  15.456  1.00  0.00     0.179 C 
HETATM   11  C   UNL     1      -0.190   4.532  16.012  1.00  0.00     0.186 C 
HETATM   12  C   UNL     1      -1.311   4.688  14.972  1.00  0.00     0.187 C 
HETATM   13  C   UNL     1      -1.455   6.175  14.613  1.00  0.00     0.303 C 
BRANCH  10  14
HETATM   14  C   UNL     1       1.883   5.947  16.491  1.00  0.00     0.198 C 
BRANCH  14  15
HETATM   15  O   UNL     1       1.050   6.274  17.601  1.00  0.00    -0.398 OA
HETATM   16  H   UNL     1       1.633   6.492  18.352  1.00  0.00     0.209 HD
ENDBRANCH  14  15
ENDBRANCH  10  14
BRANCH  11  17
HETATM   17  O   UNL     1      -0.115   3.144  16.347  1.00  0.00    -0.348 OA
BRANCH  17  18
HETATM   18  C   UNL     1       1.030   2.459  15.850  1.00  0.00     0.296 C 
HETATM   19  O   UNL     1       0.664   1.700  14.703  1.00  0.00    -0.351 OA
HETATM   20  C   UNL     1       1.287   0.415  14.553  1.00  0.00     0.150 C 
HETATM   21  C   UNL     1       2.750   0.445  14.986  1.00  0.00     0.068 C 
HETATM   22  C   UNL     1       2.929   0.961  16.419  1.00  0.00     0.158 C 
HETATM   23  C   UNL     1       1.675   1.653  17.014  1.00  0.00     0.303 C 
BRANCH  20  24
HETATM   24  C   UNL     1       1.152  -0.029  13.086  1.00  0.00     0.196 C 
BRANCH  24  25
HETATM   25  O   UNL     1       2.298  -0.789  12.704  1.00  0.00    -0.398 OA
HETATM   26  H   UNL     1       2.506  -0.558  11.782  1.00  0.00     0.209 HD
ENDBRANCH  24  25
ENDBRANCH  20  24
BRANCH  22  27
HETATM   27  O   UNL     1       3.339  -0.121  17.265  1.00  0.00    -0.393 OA
HETATM   28  H   UNL     1       4.202  -0.414  16.900  1.00  0.00     0.210 HD
ENDBRANCH  22  27
BRANCH  23  29
HETATM   29  N   UNL     1       0.848   0.615  17.693  1.00  0.00     0.097 N 
HETATM   30  H   UNL     1       0.705  -0.136  17.012  1.00  0.00     0.316 HD
BRANCH  29  31
HETATM   31  C   UNL     1      -0.516   1.009  18.089  1.00  0.00     0.296 C 
BRANCH  31  32
HETATM   32  C   UNL     1      -1.704   0.208  17.412  1.00  0.00     0.120 C 
BRANCH  32  33
HETATM   33  C   UNL     1      -1.171  -1.177  16.898  1.00  0.00     0.053 C 
BRANCH  33  34
HETATM   34  C   UNL     1      -0.729  -2.312  17.906  1.00  0.00     0.094 C 
BRANCH  34  35
HETATM   35  C   UNL     1      -1.987  -3.272  18.159  1.00  0.00     0.051 C 
BRANCH  35  36
HETATM   36  C   UNL     1      -2.981  -3.735  17.038  1.00  0.00     0.094 C 
BRANCH  36  37
HETATM   37  C   UNL     1      -3.061  -5.294  16.868  1.00  0.00     0.051 C 
BRANCH  37  38
HETATM   38  C   UNL     1      -2.743  -5.835  15.440  1.00  0.00     0.094 C 
BRANCH  38  39
HETATM   39  C   UNL     1      -2.039  -4.763  14.533  1.00  0.00     0.051 C 
BRANCH  39  40
HETATM   40  C   UNL     1      -2.499  -4.467  13.078  1.00  0.00     0.089 C 
HETATM   41  C   UNL     1      -2.315  -2.969  12.780  1.00  0.00     0.033 C 
BRANCH  40  42
HETATM   42  N   UNL     1      -1.839  -5.223  12.024  1.00  0.00    -0.334 N 
HETATM   43  C   UNL     1      -2.209  -5.220  10.704  1.00  0.00     0.210 A 
HETATM   44  N   UNL     1      -1.419  -5.979   9.981  1.00  0.00    -0.254 NA
HETATM   45  C   UNL     1      -0.497  -6.479  10.863  1.00  0.00     0.150 A 
HETATM   46  C   UNL     1      -0.726  -6.009  12.137  1.00  0.00     0.082 A 
ENDBRANCH  40  42
ENDBRANCH  39  40
ENDBRANCH  38  39
BRANCH  38  47
HETATM   47  N   UNL     1      -2.221  -7.192  15.364  1.00  0.00    -0.339 N 
HETATM   48  C   UNL     1      -1.385  -7.790  16.268  1.00  0.00     0.209 C 
HETATM   49  N   UNL     1      -0.944  -8.946  15.836  1.00  0.00    -0.254 NA
HETATM   50  C   UNL     1      -1.642  -9.192  14.693  1.00  0.00     0.142 C 
HETATM   51  C   UNL     1      -2.504  -8.152  14.406  1.00  0.00     0.026 C 
HETATM   52  C   UNL     1      -3.550  -8.105  13.355  1.00  0.00     0.070 C 
ENDBRANCH  38  47
ENDBRANCH  37  38
ENDBRANCH  36  37
BRANCH  36  53
HETATM   53  N   UNL     1      -4.345  -3.256  17.283  1.00  0.00    -0.345 N 
HETATM   54  C   UNL     1      -5.383  -3.982  17.796  1.00  0.00     0.209 A 
HETATM   55  N   UNL     1      -6.433  -3.226  18.021  1.00  0.00    -0.255 NA
HETATM   56  C   UNL     1      -6.063  -1.963  17.657  1.00  0.00     0.135 A 
HETATM   57  C   UNL     1      -4.758  -1.949  17.227  1.00  0.00     0.111 A 
ENDBRANCH  36  53
ENDBRANCH  35  36
ENDBRANCH  34  35
BRANCH  34  58
HETATM   58  N   UNL     1       0.629  -2.848  17.747  1.00  0.00    -0.339 N 
HETATM   59  C   UNL     1       1.600  -2.725  18.718  1.00  0.00     0.209 C 
HETATM   60  N   UNL     1       2.766  -3.198  18.362  1.00  0.00    -0.254 NA
HETATM   61  C   UNL     1       2.614  -3.524  17.059  1.00  0.00     0.142 C 
HETATM   62  C   UNL     1       1.347  -3.200  16.605  1.00  0.00     0.026 C 
HETATM   63  C   UNL     1       0.954  -3.177  15.174  1.00  0.00     0.070 C 
ENDBRANCH  34  58
ENDBRANCH  33  34
ENDBRANCH  32  33
BRANCH  32  64
HETATM   64  N   UNL     1      -2.553   0.965  16.489  1.00  0.00    -0.344 N 
HETATM   65  C   UNL     1      -3.526   1.895  16.747  1.00  0.00     0.111 A 
HETATM   66  C   UNL     1      -4.029   2.280  15.529  1.00  0.00     0.135 A 
HETATM   67  N   UNL     1      -3.429   1.586  14.527  1.00  0.00    -0.255 NA
HETATM   68  C   UNL     1      -2.558   0.807  15.125  1.00  0.00     0.209 A 
ENDBRANCH  32  64
ENDBRANCH  31  32
ENDBRANCH  29  31
ENDBRANCH  23  29
ENDBRANCH  17  18
ENDBRANCH  11  17
BRANCH  12  69
HETATM   69  O   UNL     1      -1.067   3.901  13.795  1.00  0.00    -0.391 OA
HETATM   70  H   UNL     1      -1.480   3.026  13.936  1.00  0.00     0.210 HD
ENDBRANCH  12  69
BRANCH  13  71
HETATM   71  N   UNL     1      -2.517   6.344  13.600  1.00  0.00     0.090 N 
HETATM   72  H   UNL     1      -3.210   5.619  13.808  1.00  0.00     0.313 HD
HETATM   73  H   UNL     1      -2.100   6.026  12.715  1.00  0.00     0.313 HD
ENDBRANCH  13  71
ENDBRANCH   7   8
ENDBRANCH   1   7
BRANCH   2  74
HETATM   74  C   UNL     1       0.877   4.483  10.958  1.00  0.00     0.198 C 
BRANCH  74  75
HETATM   75  O   UNL     1      -0.037   3.451  11.308  1.00  0.00    -0.398 OA
HETATM   76  H   UNL     1      -0.739   3.842  11.856  1.00  0.00     0.209 HD
ENDBRANCH  74  75
ENDBRANCH   2  74
BRANCH   3  77
HETATM   77  O   UNL     1       1.884   9.071  12.280  1.00  0.00    -0.391 OA
HETATM   78  H   UNL     1       2.691   9.552  12.026  1.00  0.00     0.210 HD
ENDBRANCH   3  77
BRANCH   4  79
HETATM   79  N   UNL     1      -0.092   9.235  10.213  1.00  0.00     0.097 N 
HETATM   80  H   UNL     1      -0.184   9.438  11.204  1.00  0.00     0.316 HD
BRANCH  79  81
HETATM   81  C   UNL     1      -0.379  10.420   9.386  1.00  0.00     0.296 C 
BRANCH  81  82
HETATM   82  C   UNL     1      -0.435  11.844  10.159  1.00  0.00     0.120 C 
BRANCH  82  83
HETATM   83  N   UNL     1      -1.262  12.840   9.480  1.00  0.00    -0.344 N 
HETATM   84  C   UNL     1      -1.770  12.801   8.207  1.00  0.00     0.111 A 
HETATM   85  C   UNL     1      -2.444  13.988   8.037  1.00  0.00     0.135 A 
HETATM   86  N   UNL     1      -2.329  14.768   9.153  1.00  0.00    -0.255 NA
HETATM   87  C   UNL     1      -1.590  14.072   9.984  1.00  0.00     0.209 A 
ENDBRANCH  82  83
BRANCH  82  88
HETATM   88  C   UNL     1      -0.708  11.643  11.696  1.00  0.00     0.053 C 
BRANCH  88  89
HETATM   89  C   UNL     1       0.141  12.254  12.892  1.00  0.00     0.094 C 
BRANCH  89  90
HETATM   90  C   UNL     1       1.587  12.828  12.522  1.00  0.00     0.051 C 
BRANCH  90  91
HETATM   91  C   UNL     1       2.622  13.208  13.682  1.00  0.00     0.094 C 
BRANCH  91  92
HETATM   92  N   UNL     1       2.721  14.657  13.900  1.00  0.00    -0.345 N 
HETATM   93  C   UNL     1       3.538  15.530  13.232  1.00  0.00     0.111 A 
HETATM   94  C   UNL     1       3.470  16.706  13.941  1.00  0.00     0.135 A 
HETATM   95  N   UNL     1       2.653  16.565  15.027  1.00  0.00    -0.255 NA
HETATM   96  C   UNL     1       2.205  15.332  14.973  1.00  0.00     0.209 A 
ENDBRANCH  91  92
BRANCH  91  97
HETATM   97  C   UNL     1       4.091  12.666  13.490  1.00  0.00     0.051 C 
BRANCH  97  98
HETATM   98  C   UNL     1       4.967  12.436  14.785  1.00  0.00     0.094 C 
BRANCH  98  99
HETATM   99  C   UNL     1       5.828  13.728  15.127  1.00  0.00     0.051 C 
BRANCH  99 100
HETATM  100  C   UNL     1       7.272  13.967  14.582  1.00  0.00     0.089 C 
HETATM  101  C   UNL     1       8.106  12.678  14.717  1.00  0.00     0.033 C 
BRANCH 100 102
HETATM  102  N   UNL     1       7.365  14.405  13.194  1.00  0.00    -0.334 N 
HETATM  103  C   UNL     1       7.426  13.613  12.079  1.00  0.00     0.082 A 
HETATM  104  C   UNL     1       7.505  14.496  11.025  1.00  0.00     0.150 A 
HETATM  105  N   UNL     1       7.534  15.792  11.470  1.00  0.00    -0.254 NA
HETATM  106  C   UNL     1       7.444  15.708  12.778  1.00  0.00     0.210 A 
ENDBRANCH 100 102
ENDBRANCH  99 100
ENDBRANCH  98  99
BRANCH  98 107
HETATM  107  N   UNL     1       4.387  11.738  15.925  1.00  0.00    -0.339 N 
HETATM  108  C   UNL     1       4.054  12.276  17.138  1.00  0.00     0.209 C 
HETATM  109  N   UNL     1       4.130  11.382  18.098  1.00  0.00    -0.254 NA
HETATM  110  C   UNL     1       4.241  10.186  17.460  1.00  0.00     0.142 C 
HETATM  111  C   UNL     1       4.259  10.369  16.092  1.00  0.00     0.026 C 
HETATM  112  C   UNL     1       4.056   9.349  15.044  1.00  0.00     0.070 C 
ENDBRANCH  98 107
ENDBRANCH  97  98
ENDBRANCH  91  97
ENDBRANCH  90  91
ENDBRANCH  89  90
BRANCH  89 113
HETATM  113  N   UNL     1      -0.593  12.868  14.014  1.00  0.00    -0.339 N 
HETATM  114  C   UNL     1      -1.150  14.109  14.254  1.00  0.00     0.026 C 
HETATM  115  C   UNL     1      -1.759  14.005  15.495  1.00  0.00     0.142 C 
HETATM  116  C   UNL     1      -1.204  15.326  13.422  1.00  0.00     0.070 C 
HETATM  117  N   UNL     1      -1.771  12.723  15.933  1.00  0.00    -0.254 NA
HETATM  118  C   UNL     1      -1.152  12.069  14.998  1.00  0.00     0.209 C 
ENDBRANCH  89 113
ENDBRANCH  88  89
ENDBRANCH  82  88
ENDBRANCH  81  82
ENDBRANCH  79  81
ENDBRANCH   4  79
BRANCH   5 119
HETATM  119  O   UNL     1       1.405   7.284   7.777  1.00  0.00    -0.348 OA
BRANCH 119 120
HETATM  120  C   UNL     1       0.623   6.336   6.984  1.00  0.00     0.186 C 
HETATM  121  C   UNL     1      -0.728   6.932   6.516  1.00  0.00     0.179 C 
HETATM  122  O   UNL     1      -0.780   7.160   5.098  1.00  0.00    -0.349 OA
HETATM  123  C   UNL     1      -0.547   6.025   4.258  1.00  0.00     0.296 C 
HETATM  124  C   UNL     1       0.617   5.110   4.768  1.00  0.00     0.303 C 
HETATM  125  C   UNL     1       1.490   5.850   5.805  1.00  0.00     0.187 C 
BRANCH 121 126
HETATM  126  C   UNL     1      -1.922   6.047   6.930  1.00  0.00     0.198 C 
BRANCH 126 127
HETATM  127  O   UNL     1      -1.495   4.932   7.705  1.00  0.00    -0.398 OA
HETATM  128  H   UNL     1      -1.587   4.129   7.155  1.00  0.00     0.209 HD
ENDBRANCH 126 127
ENDBRANCH 121 126
BRANCH 123 129
HETATM  129  O   UNL     1      -0.242   6.525   2.950  1.00  0.00    -0.348 OA
BRANCH 129 130
HETATM  130  C   UNL     1      -1.191   6.205   1.919  1.00  0.00     0.186 C 
HETATM  131  C   UNL     1      -2.068   4.999   2.335  1.00  0.00     0.176 C 
HETATM  132  O   UNL     1      -3.462   5.167   1.971  1.00  0.00    -0.379 OA
HETATM  133  C   UNL     1      -3.654   5.712   0.664  1.00  0.00     0.206 C 
HETATM  134  C   UNL     1      -3.132   7.163   0.573  1.00  0.00     0.272 C 
HETATM  135  C   UNL     1      -2.095   7.440   1.690  1.00  0.00     0.184 C 
BRANCH 131 136
HETATM  136  C   UNL     1      -1.572   3.665   1.761  1.00  0.00     0.198 C 
BRANCH 136 137
HETATM  137  O   UNL     1      -1.183   2.793   2.821  1.00  0.00    -0.398 OA
HETATM  138  H   UNL     1      -1.902   2.138   2.918  1.00  0.00     0.209 HD
ENDBRANCH 136 137
ENDBRANCH 131 136
BRANCH 134 139
HETATM  139  N   UNL     1      -4.211   8.172   0.617  1.00  0.00     0.087 N 
HETATM  140  H   UNL     1      -4.059   8.752   1.452  1.00  0.00     0.313 HD
HETATM  141  H   UNL     1      -5.120   7.735   0.765  1.00  0.00     0.313 HD
ENDBRANCH 134 139
BRANCH 135 142
HETATM  142  O   UNL     1      -2.790   7.815   2.899  1.00  0.00    -0.391 OA
HETATM  143  H   UNL     1      -3.112   8.728   2.770  1.00  0.00     0.210 HD
ENDBRANCH 135 142
ENDBRANCH 129 130
ENDBRANCH 123 129
BRANCH 124 144
HETATM  144  N   UNL     1       1.421   4.525   3.670  1.00  0.00     0.090 N 
HETATM  145  H   UNL     1       1.713   5.266   3.033  1.00  0.00     0.313 HD
HETATM  146  H   UNL     1       0.749   3.986   3.105  1.00  0.00     0.313 HD
ENDBRANCH 124 144
BRANCH 125 147
HETATM  147  O   UNL     1       2.232   6.910   5.202  1.00  0.00    -0.391 OA
HETATM  148  H   UNL     1       1.836   7.069   4.323  1.00  0.00     0.210 HD
ENDBRANCH 125 147
ENDBRANCH 119 120
ENDBRANCH   5 119
TORSDOF 58
ENDMDL
MODEL 9
REMARK VINA RESULT:      -6.9      3.266      9.470
REMARK WARNING: 32 MAX_TORS EXCEEDED!!!
REMARK  58 active torsions:
REMARK  status: ('A' for Active; 'I' for Inactive)
REMARK    1  A    between atoms: C_1  and  O_30 
REMARK    2  A    between atoms: C_2  and  C_6 
REMARK    3  A    between atoms: C_3  and  O_9 
REMARK    4  A    between atoms: C_4  and  N_11 
REMARK    5  A    between atoms: C_5  and  O_12 
REMARK    6  A    between atoms: C_6  and  O_7 
REMARK    7  A    between atoms: N_11  and  C_118 
REMARK    8  A    between atoms: O_12  and  C_20 
REMARK    9  A    between atoms: O_14  and  C_18 
REMARK   10  A    between atoms: C_16  and  C_23 
REMARK   11  A    between atoms: O_17  and  C_23 
REMARK   12  A    between atoms: O_19  and  C_22 
REMARK   13  A    between atoms: O_19  and  C_42 
REMARK   14  A    between atoms: N_21  and  C_24 
REMARK   15  A    between atoms: O_26  and  C_29 
REMARK   16  A    between atoms: C_28  and  C_34 
REMARK   17  A    between atoms: O_30  and  C_33 
REMARK   18  A    between atoms: C_31  and  O_53 
REMARK   19  A    between atoms: N_32  and  C_35 
REMARK   20  A    between atoms: C_34  and  O_65 
REMARK   21  A    between atoms: O_37  and  C_41 
REMARK   22  A    between atoms: C_39  and  C_45 
REMARK   23  A    between atoms: O_40  and  C_45 
REMARK   24  A    between atoms: N_43  and  C_46 
REMARK   25  A    between atoms: O_48  and  C_52 
REMARK   26  A    between atoms: C_50  and  C_57 
REMARK   27  A    between atoms: O_51  and  C_57 
REMARK   28  A    between atoms: O_53  and  C_56 
REMARK   29  A    between atoms: N_55  and  C_58 
REMARK   30  A    between atoms: N_55  and  C_71 
REMARK   31  A    between atoms: C_71  and  C_73 
REMARK   32  A    between atoms: C_73  and  C_74 
REMARK   33  A    between atoms: C_73  and  N_87 
REMARK   34  A    between atoms: C_74  and  C_75 
REMARK   35  A    between atoms: C_75  and  C_76 
REMARK   36  A    between atoms: C_75  and  N_101 
REMARK   37  A    between atoms: C_76  and  C_77 
REMARK   38  A    between atoms: C_77  and  C_78 
REMARK   39  A    between atoms: C_77  and  N_91 
REMARK   40  A    between atoms: C_78  and  C_79 
REMARK   41  A    between atoms: C_79  and  C_80 
REMARK   42  A    between atoms: C_79  and  N_106 
REMARK   43  A    between atoms: C_80  and  C_81 
REMARK   44  A    between atoms: C_81  and  N_96 
REMARK   45  A    between atoms: N_113  and  C_119 
REMARK   46  A    between atoms: C_118  and  C_119 
REMARK   47  A    between atoms: C_119  and  C_126 
REMARK   48  A    between atoms: N_122  and  C_128 
REMARK   49  A    between atoms: C_124  and  C_128 
REMARK   50  A    between atoms: C_124  and  C_130 
REMARK   51  A    between atoms: N_125  and  C_135 
REMARK   52  A    between atoms: C_126  and  C_130 
REMARK   53  A    between atoms: C_128  and  C_132 
REMARK   54  A    between atoms: N_129  and  C_130 
REMARK   55  A    between atoms: C_132  and  C_137 
REMARK   56  A    between atoms: C_135  and  C_136 
REMARK   57  A    between atoms: C_136  and  C_137 
REMARK   58  A    between atoms: C_137  and  N_140 
ROOT
HETATM    1  C   UNL     1       0.893   1.845  14.113  1.00  0.00     0.186 C 
HETATM    2  C   UNL     1       1.868   2.554  15.131  1.00  0.00     0.179 C 
HETATM    3  C   UNL     1       0.096   2.809  13.177  1.00  0.00     0.188 C 
HETATM    4  C   UNL     1       0.848   4.138  12.878  1.00  0.00     0.306 C 
HETATM    5  C   UNL     1       1.079   4.659  14.334  1.00  0.00     0.296 C 
HETATM    6  O   UNL     1       2.174   3.952  14.880  1.00  0.00    -0.349 OA
ENDROOT
BRANCH   1   7
HETATM    7  O   UNL     1       1.630   0.885  13.333  1.00  0.00    -0.348 OA
BRANCH   7   8
HETATM    8  C   UNL     1       1.038  -0.428  13.288  1.00  0.00     0.296 C 
HETATM    9  O   UNL     1      -0.263  -0.324  13.873  1.00  0.00    -0.349 OA
HETATM   10  C   UNL     1      -0.999  -1.561  13.982  1.00  0.00     0.179 C 
HETATM   11  C   UNL     1      -0.157  -2.691  14.616  1.00  0.00     0.186 C 
HETATM   12  C   UNL     1       1.154  -2.129  15.188  1.00  0.00     0.187 C 
HETATM   13  C   UNL     1       1.942  -1.452  14.057  1.00  0.00     0.303 C 
BRANCH  10  14
HETATM   14  C   UNL     1      -1.575  -1.975  12.614  1.00  0.00     0.198 C 
BRANCH  14  15
HETATM   15  O   UNL     1      -1.500  -3.384  12.411  1.00  0.00    -0.398 OA
HETATM   16  H   UNL     1      -2.413  -3.727  12.397  1.00  0.00     0.209 HD
ENDBRANCH  14  15
ENDBRANCH  10  14
BRANCH  11  17
HETATM   17  O   UNL     1      -0.841  -3.345  15.689  1.00  0.00    -0.348 OA
BRANCH  17  18
HETATM   18  C   UNL     1      -0.929  -4.760  15.582  1.00  0.00     0.296 C 
HETATM   19  O   UNL     1      -0.455  -5.167  14.302  1.00  0.00    -0.351 OA
HETATM   20  C   UNL     1      -1.151  -6.253  13.671  1.00  0.00     0.150 C 
HETATM   21  C   UNL     1      -1.563  -7.320  14.681  1.00  0.00     0.068 C 
HETATM   22  C   UNL     1      -2.400  -6.748  15.833  1.00  0.00     0.158 C 
HETATM   23  C   UNL     1      -2.378  -5.201  15.935  1.00  0.00     0.303 C 
BRANCH  20  24
HETATM   24  C   UNL     1      -0.247  -6.846  12.576  1.00  0.00     0.196 C 
BRANCH  24  25
HETATM   25  O   UNL     1      -0.375  -6.081  11.378  1.00  0.00    -0.398 OA
HETATM   26  H   UNL     1       0.015  -5.206  11.549  1.00  0.00     0.209 HD
ENDBRANCH  24  25
ENDBRANCH  20  24
BRANCH  22  27
HETATM   27  O   UNL     1      -3.750  -7.213  15.715  1.00  0.00    -0.393 OA
HETATM   28  H   UNL     1      -4.298  -6.399  15.715  1.00  0.00     0.210 HD
ENDBRANCH  22  27
BRANCH  23  29
HETATM   29  N   UNL     1      -3.497  -4.664  15.108  1.00  0.00     0.097 N 
HETATM   30  H   UNL     1      -3.141  -4.586  14.151  1.00  0.00     0.316 HD
BRANCH  29  31
HETATM   31  C   UNL     1      -3.967  -3.305  15.430  1.00  0.00     0.296 C 
BRANCH  31  32
HETATM   32  C   UNL     1      -4.156  -2.972  16.967  1.00  0.00     0.120 C 
BRANCH  32  33
HETATM   33  C   UNL     1      -5.661  -2.625  17.244  1.00  0.00     0.053 C 
BRANCH  33  34
HETATM   34  C   UNL     1      -6.086  -1.745  18.488  1.00  0.00     0.094 C 
BRANCH  34  35
HETATM   35  C   UNL     1      -6.031  -0.204  18.051  1.00  0.00     0.051 C 
BRANCH  35  36
HETATM   36  C   UNL     1      -5.869   0.990  19.054  1.00  0.00     0.094 C 
BRANCH  36  37
HETATM   37  C   UNL     1      -5.540   2.359  18.360  1.00  0.00     0.051 C 
BRANCH  37  38
HETATM   38  C   UNL     1      -4.083   2.883  18.555  1.00  0.00     0.094 C 
BRANCH  38  39
HETATM   39  C   UNL     1      -3.750   4.097  17.616  1.00  0.00     0.051 C 
BRANCH  39  40
HETATM   40  C   UNL     1      -2.448   4.167  16.770  1.00  0.00     0.089 C 
HETATM   41  C   UNL     1      -2.334   2.899  15.905  1.00  0.00     0.033 C 
BRANCH  40  42
HETATM   42  N   UNL     1      -2.300   5.324  15.900  1.00  0.00    -0.334 N 
HETATM   43  C   UNL     1      -2.410   5.301  14.535  1.00  0.00     0.210 A 
HETATM   44  N   UNL     1      -2.250   6.496  14.018  1.00  0.00    -0.254 NA
HETATM   45  C   UNL     1      -2.044   7.325  15.090  1.00  0.00     0.150 A 
HETATM   46  C   UNL     1      -2.089   6.622  16.274  1.00  0.00     0.082 A 
ENDBRANCH  40  42
ENDBRANCH  39  40
ENDBRANCH  38  39
BRANCH  38  47
HETATM   47  N   UNL     1      -3.608   2.976  19.928  1.00  0.00    -0.339 N 
HETATM   48  C   UNL     1      -2.472   2.403  20.433  1.00  0.00     0.209 C 
HETATM   49  N   UNL     1      -2.409   2.512  21.738  1.00  0.00    -0.254 NA
HETATM   50  C   UNL     1      -3.444   3.325  22.081  1.00  0.00     0.142 C 
HETATM   51  C   UNL     1      -4.173   3.697  20.969  1.00  0.00     0.026 C 
HETATM   52  C   UNL     1      -5.264   4.699  20.892  1.00  0.00     0.070 C 
ENDBRANCH  38  47
ENDBRANCH  37  38
ENDBRANCH  36  37
BRANCH  36  53
HETATM   53  N   UNL     1      -7.075   1.194  19.863  1.00  0.00    -0.345 N 
HETATM   54  C   UNL     1      -7.236   0.866  21.180  1.00  0.00     0.209 A 
HETATM   55  N   UNL     1      -8.383   1.305  21.647  1.00  0.00    -0.255 NA
HETATM   56  C   UNL     1      -8.983   1.951  20.604  1.00  0.00     0.135 A 
HETATM   57  C   UNL     1      -8.175   1.926  19.494  1.00  0.00     0.111 A 
ENDBRANCH  36  53
ENDBRANCH  35  36
ENDBRANCH  34  35
BRANCH  34  58
HETATM   58  N   UNL     1      -7.168  -2.268  19.331  1.00  0.00    -0.339 N 
HETATM   59  C   UNL     1      -6.994  -3.323  20.203  1.00  0.00     0.209 C 
HETATM   60  N   UNL     1      -8.092  -3.693  20.810  1.00  0.00    -0.254 NA
HETATM   61  C   UNL     1      -9.064  -2.957  20.226  1.00  0.00     0.142 C 
HETATM   62  C   UNL     1      -8.554  -2.161  19.216  1.00  0.00     0.026 C 
HETATM   63  C   UNL     1      -9.385  -1.451  18.213  1.00  0.00     0.070 C 
ENDBRANCH  34  58
ENDBRANCH  33  34
ENDBRANCH  32  33
BRANCH  32  64
HETATM   64  N   UNL     1      -3.159  -2.079  17.564  1.00  0.00    -0.344 N 
HETATM   65  C   UNL     1      -2.486  -2.178  18.755  1.00  0.00     0.111 A 
HETATM   66  C   UNL     1      -1.685  -1.066  18.843  1.00  0.00     0.135 A 
HETATM   67  N   UNL     1      -1.874  -0.260  17.765  1.00  0.00    -0.255 NA
HETATM   68  C   UNL     1      -2.758  -0.883  17.022  1.00  0.00     0.209 A 
ENDBRANCH  32  64
ENDBRANCH  31  32
ENDBRANCH  29  31
ENDBRANCH  23  29
ENDBRANCH  17  18
ENDBRANCH  11  17
BRANCH  12  69
HETATM   69  O   UNL     1       0.920  -1.210  16.268  1.00  0.00    -0.391 OA
HETATM   70  H   UNL     1      -0.047  -1.082  16.339  1.00  0.00     0.210 HD
ENDBRANCH  12  69
BRANCH  13  71
HETATM   71  N   UNL     1       3.200  -0.890  14.591  1.00  0.00     0.090 N 
HETATM   72  H   UNL     1       3.256   0.060  14.212  1.00  0.00     0.313 HD
HETATM   73  H   UNL     1       3.951  -1.387  14.093  1.00  0.00     0.313 HD
ENDBRANCH  13  71
ENDBRANCH   7   8
ENDBRANCH   1   7
BRANCH   2  74
HETATM   74  C   UNL     1       1.308   2.405  16.568  1.00  0.00     0.198 C 
BRANCH  74  75
HETATM   75  O   UNL     1       2.251   2.857  17.532  1.00  0.00    -0.398 OA
HETATM   76  H   UNL     1       1.759   3.256  18.271  1.00  0.00     0.209 HD
ENDBRANCH  74  75
ENDBRANCH   2  74
BRANCH   3  77
HETATM   77  O   UNL     1      -0.375   2.157  11.994  1.00  0.00    -0.391 OA
HETATM   78  H   UNL     1      -1.203   2.586  11.716  1.00  0.00     0.210 HD
ENDBRANCH   3  77
BRANCH   4  79
HETATM   79  N   UNL     1       1.952   3.826  11.916  1.00  0.00     0.097 N 
HETATM   80  H   UNL     1       1.751   2.951  11.442  1.00  0.00     0.316 HD
BRANCH  79  81
HETATM   81  C   UNL     1       2.410   4.862  10.975  1.00  0.00     0.296 C 
BRANCH  81  82
HETATM   82  C   UNL     1       1.285   5.500   9.998  1.00  0.00     0.120 C 
BRANCH  82  83
HETATM   83  N   UNL     1       0.663   6.706  10.539  1.00  0.00    -0.344 N 
HETATM   84  C   UNL     1      -0.660   6.928  10.824  1.00  0.00     0.111 A 
HETATM   85  C   UNL     1      -0.734   8.226  11.274  1.00  0.00     0.135 A 
HETATM   86  N   UNL     1       0.497   8.817  11.234  1.00  0.00    -0.255 NA
HETATM   87  C   UNL     1       1.305   7.897  10.759  1.00  0.00     0.209 A 
ENDBRANCH  82  83
BRANCH  82  88
HETATM   88  C   UNL     1       1.810   5.593   8.517  1.00  0.00     0.053 C 
BRANCH  88  89
HETATM   89  C   UNL     1       0.966   6.030   7.243  1.00  0.00     0.094 C 
BRANCH  89  90
HETATM   90  C   UNL     1       1.719   6.940   6.165  1.00  0.00     0.051 C 
BRANCH  90  91
HETATM   91  C   UNL     1       0.980   8.207   5.525  1.00  0.00     0.094 C 
BRANCH  91  92
HETATM   92  N   UNL     1       0.614   9.215   6.528  1.00  0.00    -0.345 N 
HETATM   93  C   UNL     1       1.453  10.122   7.119  1.00  0.00     0.111 A 
HETATM   94  C   UNL     1       0.727  10.668   8.152  1.00  0.00     0.135 A 
HETATM   95  N   UNL     1      -0.516  10.104   8.216  1.00  0.00    -0.255 NA
HETATM   96  C   UNL     1      -0.564   9.246   7.224  1.00  0.00     0.209 A 
ENDBRANCH  91  92
BRANCH  91  97
HETATM   97  C   UNL     1      -0.320   7.888   4.690  1.00  0.00     0.051 C 
BRANCH  97  98
HETATM   98  C   UNL     1      -0.217   6.799   3.551  1.00  0.00     0.094 C 
BRANCH  98  99
HETATM   99  C   UNL     1      -1.659   6.380   3.030  1.00  0.00     0.051 C 
BRANCH  99 100
HETATM  100  C   UNL     1      -1.909   5.705   1.644  1.00  0.00     0.089 C 
HETATM  101  C   UNL     1      -1.876   4.171   1.792  1.00  0.00     0.033 C 
BRANCH 100 102
HETATM  102  N   UNL     1      -3.160   6.054   0.982  1.00  0.00    -0.334 N 
HETATM  103  C   UNL     1      -4.424   5.677   1.349  1.00  0.00     0.082 A 
HETATM  104  C   UNL     1      -5.250   6.256   0.412  1.00  0.00     0.150 A 
HETATM  105  N   UNL     1      -4.524   6.937  -0.531  1.00  0.00    -0.254 NA
HETATM  106  C   UNL     1      -3.270   6.802  -0.162  1.00  0.00     0.210 A 
ENDBRANCH 100 102
ENDBRANCH  99 100
ENDBRANCH  98  99
BRANCH  98 107
HETATM  107  N   UNL     1       0.816   6.928   2.530  1.00  0.00    -0.339 N 
HETATM  108  C   UNL     1       0.937   7.927   1.604  1.00  0.00     0.209 C 
HETATM  109  N   UNL     1       1.536   7.502   0.514  1.00  0.00    -0.254 NA
HETATM  110  C   UNL     1       2.057   6.291   0.846  1.00  0.00     0.142 C 
HETATM  111  C   UNL     1       1.744   5.972   2.152  1.00  0.00     0.026 C 
HETATM  112  C   UNL     1       2.355   4.927   2.997  1.00  0.00     0.070 C 
ENDBRANCH  98 107
ENDBRANCH  97  98
ENDBRANCH  91  97
ENDBRANCH  90  91
ENDBRANCH  89  90
BRANCH  89 113
HETATM  113  N   UNL     1      -0.097   5.122   6.776  1.00  0.00    -0.339 N 
HETATM  114  C   UNL     1      -1.476   5.107   6.858  1.00  0.00     0.026 C 
HETATM  115  C   UNL     1      -1.875   3.988   6.144  1.00  0.00     0.142 C 
HETATM  116  C   UNL     1      -2.421   6.052   7.483  1.00  0.00     0.070 C 
HETATM  117  N   UNL     1      -0.837   3.434   5.473  1.00  0.00    -0.254 NA
HETATM  118  C   UNL     1       0.177   4.176   5.800  1.00  0.00     0.209 C 
ENDBRANCH  89 113
ENDBRANCH  88  89
ENDBRANCH  82  88
ENDBRANCH  81  82
ENDBRANCH  79  81
ENDBRANCH   4  79
BRANCH   5 119
HETATM  119  O   UNL     1       1.168   6.090  14.414  1.00  0.00    -0.348 OA
BRANCH 119 120
HETATM  120  C   UNL     1       2.520   6.554  14.720  1.00  0.00     0.186 C 
HETATM  121  C   UNL     1       3.142   7.364  13.555  1.00  0.00     0.179 C 
HETATM  122  O   UNL     1       3.295   8.760  13.859  1.00  0.00    -0.349 OA
HETATM  123  C   UNL     1       4.078   9.081  15.014  1.00  0.00     0.296 C 
HETATM  124  C   UNL     1       3.798   8.135  16.230  1.00  0.00     0.303 C 
HETATM  125  C   UNL     1       2.478   7.358  16.035  1.00  0.00     0.187 C 
BRANCH 121 126
HETATM  126  C   UNL     1       4.506   6.789  13.119  1.00  0.00     0.198 C 
BRANCH 126 127
HETATM  127  O   UNL     1       4.500   5.365  13.143  1.00  0.00    -0.398 OA
HETATM  128  H   UNL     1       3.834   5.077  13.798  1.00  0.00     0.209 HD
ENDBRANCH 126 127
ENDBRANCH 121 126
BRANCH 123 129
HETATM  129  O   UNL     1       3.773  10.437  15.365  1.00  0.00    -0.348 OA
BRANCH 129 130
HETATM  130  C   UNL     1       3.408  11.301  14.276  1.00  0.00     0.186 C 
HETATM  131  C   UNL     1       2.176  12.161  14.648  1.00  0.00     0.176 C 
HETATM  132  O   UNL     1       2.289  13.532  14.187  1.00  0.00    -0.379 OA
HETATM  133  C   UNL     1       2.812  13.653  12.862  1.00  0.00     0.206 C 
HETATM  134  C   UNL     1       4.279  13.177  12.788  1.00  0.00     0.272 C 
HETATM  135  C   UNL     1       4.607  12.230  13.970  1.00  0.00     0.184 C 
BRANCH 131 136
HETATM  136  C   UNL     1       0.854  11.580  14.127  1.00  0.00     0.198 C 
BRANCH 136 137
HETATM  137  O   UNL     1       0.952  10.160  14.027  1.00  0.00    -0.398 OA
HETATM  138  H   UNL     1       1.579   9.977  13.300  1.00  0.00     0.209 HD
ENDBRANCH 136 137
ENDBRANCH 131 136
BRANCH 134 139
HETATM  139  N   UNL     1       5.249  14.291  12.744  1.00  0.00     0.087 N 
HETATM  140  H   UNL     1       4.942  14.997  13.426  1.00  0.00     0.313 HD
HETATM  141  H   UNL     1       5.224  14.768  11.844  1.00  0.00     0.313 HD
ENDBRANCH 134 139
BRANCH 135 142
HETATM  142  O   UNL     1       4.970  13.019  15.123  1.00  0.00    -0.391 OA
HETATM  143  H   UNL     1       5.404  12.415  15.755  1.00  0.00     0.210 HD
ENDBRANCH 135 142
ENDBRANCH 129 130
ENDBRANCH 123 129
BRANCH 124 144
HETATM  144  N   UNL     1       3.852   8.834  17.536  1.00  0.00     0.090 N 
HETATM  145  H   UNL     1       4.424   8.293  18.185  1.00  0.00     0.313 HD
HETATM  146  H   UNL     1       2.904   8.739  17.928  1.00  0.00     0.313 HD
ENDBRANCH 124 144
BRANCH 125 147
HETATM  147  O   UNL     1       1.345   8.224  16.108  1.00  0.00    -0.391 OA
HETATM  148  H   UNL     1       0.806   8.052  15.311  1.00  0.00     0.210 HD
ENDBRANCH 125 147
ENDBRANCH 119 120
ENDBRANCH   5 119
TORSDOF 58
ENDMDL
