MODEL 1
REMARK VINA RESULT:      -8.3      0.000      0.000
REMARK WARNING: 32 MAX_TORS EXCEEDED!!!
REMARK  58 active torsions:
REMARK  status: ('A' for Active; 'I' for Inactive)
REMARK    1  A    between atoms: C_1  and  O_30 
REMARK    2  A    between atoms: C_2  and  C_6 
REMARK    3  A    between atoms: C_3  and  O_9 
REMARK    4  A    between atoms: C_4  and  N_11 
REMARK    5  A    between atoms: C_5  and  O_12 
REMARK    6  A    between atoms: C_6  and  O_7 
REMARK    7  A    between atoms: N_11  and  C_118 
REMARK    8  A    between atoms: O_12  and  C_20 
REMARK    9  A    between atoms: O_14  and  C_18 
REMARK   10  A    between atoms: C_16  and  C_23 
REMARK   11  A    between atoms: O_17  and  C_23 
REMARK   12  A    between atoms: O_19  and  C_22 
REMARK   13  A    between atoms: O_19  and  C_42 
REMARK   14  A    between atoms: N_21  and  C_24 
REMARK   15  A    between atoms: O_26  and  C_29 
REMARK   16  A    between atoms: C_28  and  C_34 
REMARK   17  A    between atoms: O_30  and  C_33 
REMARK   18  A    between atoms: C_31  and  O_53 
REMARK   19  A    between atoms: N_32  and  C_35 
REMARK   20  A    between atoms: C_34  and  O_65 
REMARK   21  A    between atoms: O_37  and  C_41 
REMARK   22  A    between atoms: C_39  and  C_45 
REMARK   23  A    between atoms: O_40  and  C_45 
REMARK   24  A    between atoms: N_43  and  C_46 
REMARK   25  A    between atoms: O_48  and  C_52 
REMARK   26  A    between atoms: C_50  and  C_57 
REMARK   27  A    between atoms: O_51  and  C_57 
REMARK   28  A    between atoms: O_53  and  C_56 
REMARK   29  A    between atoms: N_55  and  C_58 
REMARK   30  A    between atoms: N_55  and  C_71 
REMARK   31  A    between atoms: C_71  and  C_73 
REMARK   32  A    between atoms: C_73  and  C_74 
REMARK   33  A    between atoms: C_73  and  N_87 
REMARK   34  A    between atoms: C_74  and  C_75 
REMARK   35  A    between atoms: C_75  and  C_76 
REMARK   36  A    between atoms: C_75  and  N_101 
REMARK   37  A    between atoms: C_76  and  C_77 
REMARK   38  A    between atoms: C_77  and  C_78 
REMARK   39  A    between atoms: C_77  and  N_91 
REMARK   40  A    between atoms: C_78  and  C_79 
REMARK   41  A    between atoms: C_79  and  C_80 
REMARK   42  A    between atoms: C_79  and  N_106 
REMARK   43  A    between atoms: C_80  and  C_81 
REMARK   44  A    between atoms: C_81  and  N_96 
REMARK   45  A    between atoms: N_113  and  C_119 
REMARK   46  A    between atoms: C_118  and  C_119 
REMARK   47  A    between atoms: C_119  and  C_126 
REMARK   48  A    between atoms: N_122  and  C_128 
REMARK   49  A    between atoms: C_124  and  C_128 
REMARK   50  A    between atoms: C_124  and  C_130 
REMARK   51  A    between atoms: N_125  and  C_135 
REMARK   52  A    between atoms: C_126  and  C_130 
REMARK   53  A    between atoms: C_128  and  C_132 
REMARK   54  A    between atoms: N_129  and  C_130 
REMARK   55  A    between atoms: C_132  and  C_137 
REMARK   56  A    between atoms: C_135  and  C_136 
REMARK   57  A    between atoms: C_136  and  C_137 
REMARK   58  A    between atoms: C_137  and  N_140 
ROOT
HETATM    1  C   UNL     1       1.050   4.726  12.838  1.00  0.00     0.186 C 
HETATM    2  C   UNL     1       2.004   5.681  13.655  1.00  0.00     0.179 C 
HETATM    3  C   UNL     1       0.083   5.451  11.848  1.00  0.00     0.188 C 
HETATM    4  C   UNL     1       0.620   6.816  11.303  1.00  0.00     0.306 C 
HETATM    5  C   UNL     1       0.882   7.548  12.672  1.00  0.00     0.296 C 
HETATM    6  O   UNL     1       2.101   7.062  13.199  1.00  0.00    -0.349 OA
ENDROOT
BRANCH   1   7
HETATM    7  O   UNL     1       1.831   3.719  12.164  1.00  0.00    -0.348 OA
BRANCH   7   8
HETATM    8  C   UNL     1       1.417   2.358  12.420  1.00  0.00     0.296 C 
HETATM    9  O   UNL     1       0.045   2.403  12.835  1.00  0.00    -0.349 OA
HETATM   10  C   UNL     1      -0.532   1.151  13.272  1.00  0.00     0.179 C 
HETATM   11  C   UNL     1       0.360   0.399  14.282  1.00  0.00     0.186 C 
HETATM   12  C   UNL     1       1.520   1.291  14.740  1.00  0.00     0.187 C 
HETATM   13  C   UNL     1       2.339   1.716  13.515  1.00  0.00     0.303 C 
BRANCH  10  14
HETATM   14  C   UNL     1      -0.899   0.264  12.066  1.00  0.00     0.198 C 
BRANCH  14  15
HETATM   15  O   UNL     1      -2.306   0.042  11.980  1.00  0.00    -0.398 OA
HETATM   16  H   UNL     1      -2.665   0.674  11.330  1.00  0.00     0.209 HD
ENDBRANCH  14  15
ENDBRANCH  10  14
BRANCH  11  17
HETATM   17  O   UNL     1      -0.349   0.013  15.463  1.00  0.00    -0.348 OA
BRANCH  17  18
HETATM   18  C   UNL     1      -1.756   0.205  15.419  1.00  0.00     0.296 C 
HETATM   19  O   UNL     1      -2.039   1.592  15.586  1.00  0.00    -0.351 OA
HETATM   20  C   UNL     1      -3.216   1.925  16.339  1.00  0.00     0.150 C 
HETATM   21  C   UNL     1      -4.352   0.944  16.064  1.00  0.00     0.068 C 
HETATM   22  C   UNL     1      -3.948  -0.509  16.341  1.00  0.00     0.158 C 
HETATM   23  C   UNL     1      -2.418  -0.739  16.462  1.00  0.00     0.303 C 
BRANCH  20  24
HETATM   24  C   UNL     1      -3.626   3.365  15.989  1.00  0.00     0.196 C 
BRANCH  24  25
HETATM   25  O   UNL     1      -4.328   3.378  14.746  1.00  0.00    -0.398 OA
HETATM   26  H   UNL     1      -5.279   3.412  14.948  1.00  0.00     0.209 HD
ENDBRANCH  24  25
ENDBRANCH  20  24
BRANCH  22  27
HETATM   27  O   UNL     1      -4.613  -0.970  17.522  1.00  0.00    -0.393 OA
HETATM   28  H   UNL     1      -4.329  -0.356  18.231  1.00  0.00     0.210 HD
ENDBRANCH  22  27
BRANCH  23  29
HETATM   29  N   UNL     1      -2.024  -0.551  17.888  1.00  0.00     0.097 N 
HETATM   30  H   UNL     1      -1.345   0.219  17.897  1.00  0.00     0.316 HD
BRANCH  29  31
HETATM   31  C   UNL     1      -1.316  -1.664  18.544  1.00  0.00     0.296 C 
BRANCH  31  32
HETATM   32  C   UNL     1      -0.709  -2.792  17.603  1.00  0.00     0.120 C 
BRANCH  32  33
HETATM   33  C   UNL     1      -1.175  -4.209  18.107  1.00  0.00     0.053 C 
BRANCH  33  34
HETATM   34  C   UNL     1      -2.079  -5.153  17.197  1.00  0.00     0.094 C 
BRANCH  34  35
HETATM   35  C   UNL     1      -1.182  -6.072  16.274  1.00  0.00     0.051 C 
BRANCH  35  36
HETATM   36  C   UNL     1      -1.163  -5.952  14.700  1.00  0.00     0.094 C 
BRANCH  36  37
HETATM   37  C   UNL     1      -1.863  -7.170  13.997  1.00  0.00     0.051 C 
BRANCH  37  38
HETATM   38  C   UNL     1      -1.271  -7.732  12.651  1.00  0.00     0.094 C 
BRANCH  38  39
HETATM   39  C   UNL     1      -0.864  -6.574  11.667  1.00  0.00     0.051 C 
BRANCH  39  40
HETATM   40  C   UNL     1      -1.441  -6.445  10.230  1.00  0.00     0.089 C 
HETATM   41  C   UNL     1      -2.408  -5.246  10.182  1.00  0.00     0.033 C 
BRANCH  40  42
HETATM   42  N   UNL     1      -0.460  -6.286   9.164  1.00  0.00    -0.334 N 
HETATM   43  C   UNL     1      -0.644  -5.546   8.025  1.00  0.00     0.210 A 
HETATM   44  N   UNL     1       0.436  -5.532   7.278  1.00  0.00    -0.254 NA
HETATM   45  C   UNL     1       1.352  -6.288   7.961  1.00  0.00     0.150 A 
HETATM   46  C   UNL     1       0.819  -6.768   9.137  1.00  0.00     0.082 A 
ENDBRANCH  40  42
ENDBRANCH  39  40
ENDBRANCH  38  39
BRANCH  38  47
HETATM   47  N   UNL     1      -0.454  -8.931  12.694  1.00  0.00    -0.345 N 
HETATM   48  C   UNL     1       0.704  -9.176  13.370  1.00  0.00     0.209 A 
HETATM   49  N   UNL     1       1.192 -10.365  13.090  1.00  0.00    -0.255 NA
HETATM   50  C   UNL     1       0.290 -10.947  12.250  1.00  0.00     0.135 A 
HETATM   51  C   UNL     1      -0.741 -10.079  11.986  1.00  0.00     0.111 A 
ENDBRANCH  38  47
ENDBRANCH  37  38
ENDBRANCH  36  37
BRANCH  36  52
HETATM   52  N   UNL     1      -1.813  -4.716  14.232  1.00  0.00    -0.345 N 
HETATM   53  C   UNL     1      -1.179  -3.547  13.908  1.00  0.00     0.209 A 
HETATM   54  N   UNL     1      -2.016  -2.645  13.450  1.00  0.00    -0.255 NA
HETATM   55  C   UNL     1      -3.243  -3.237  13.487  1.00  0.00     0.135 A 
HETATM   56  C   UNL     1      -3.134  -4.539  13.912  1.00  0.00     0.111 A 
ENDBRANCH  36  52
ENDBRANCH  35  36
ENDBRANCH  34  35
BRANCH  34  57
HETATM   57  N   UNL     1      -3.265  -5.686  17.866  1.00  0.00    -0.345 N 
HETATM   58  C   UNL     1      -4.565  -5.344  17.582  1.00  0.00     0.209 A 
HETATM   59  N   UNL     1      -5.411  -5.784  18.485  1.00  0.00    -0.255 NA
HETATM   60  C   UNL     1      -4.641  -6.394  19.427  1.00  0.00     0.135 A 
HETATM   61  C   UNL     1      -3.312  -6.293  19.097  1.00  0.00     0.111 A 
ENDBRANCH  34  57
ENDBRANCH  33  34
ENDBRANCH  32  33
BRANCH  32  62
HETATM   62  N   UNL     1       0.716  -2.669  17.271  1.00  0.00    -0.344 N 
HETATM   63  C   UNL     1       1.518  -3.451  16.483  1.00  0.00     0.111 A 
HETATM   64  C   UNL     1       2.771  -2.892  16.520  1.00  0.00     0.135 A 
HETATM   65  N   UNL     1       2.784  -1.813  17.345  1.00  0.00    -0.255 NA
HETATM   66  C   UNL     1       1.554  -1.711  17.792  1.00  0.00     0.209 A 
ENDBRANCH  32  62
ENDBRANCH  31  32
ENDBRANCH  29  31
ENDBRANCH  23  29
ENDBRANCH  17  18
ENDBRANCH  11  17
BRANCH  12  67
HETATM   67  O   UNL     1       1.055   2.445  15.464  1.00  0.00    -0.391 OA
HETATM   68  H   UNL     1       0.399   2.134  16.118  1.00  0.00     0.210 HD
ENDBRANCH  12  67
BRANCH  13  69
HETATM   69  N   UNL     1       3.470   2.553  13.968  1.00  0.00     0.090 N 
HETATM   70  H   UNL     1       3.057   3.384  14.404  1.00  0.00     0.313 HD
HETATM   71  H   UNL     1       3.898   2.920  13.108  1.00  0.00     0.313 HD
ENDBRANCH  13  69
ENDBRANCH   7   8
ENDBRANCH   1   7
BRANCH   2  72
HETATM   72  C   UNL     1       1.596   5.654  15.153  1.00  0.00     0.198 C 
BRANCH  72  73
HETATM   73  O   UNL     1       2.413   4.759  15.897  1.00  0.00    -0.398 OA
HETATM   74  H   UNL     1       3.192   5.251  16.209  1.00  0.00     0.209 HD
ENDBRANCH  72  73
ENDBRANCH   2  72
BRANCH   3  75
HETATM   75  O   UNL     1      -0.426   4.590  10.830  1.00  0.00    -0.391 OA
HETATM   76  H   UNL     1       0.214   3.865  10.709  1.00  0.00     0.210 HD
ENDBRANCH   3  75
BRANCH   4  77
HETATM   77  N   UNL     1       1.584   6.529  10.163  1.00  0.00     0.097 N 
HETATM   78  H   UNL     1       1.164   5.803   9.584  1.00  0.00     0.316 HD
BRANCH  77  79
HETATM   79  C   UNL     1       2.054   7.616   9.269  1.00  0.00     0.296 C 
BRANCH  79  80
HETATM   80  C   UNL     1       1.057   8.130   8.047  1.00  0.00     0.120 C 
BRANCH  80  81
HETATM   81  N   UNL     1       0.489   9.465   8.248  1.00  0.00    -0.344 N 
HETATM   82  C   UNL     1       0.648  10.600   7.497  1.00  0.00     0.111 A 
HETATM   83  C   UNL     1      -0.007  11.601   8.181  1.00  0.00     0.135 A 
HETATM   84  N   UNL     1      -0.548  11.116   9.338  1.00  0.00    -0.255 NA
HETATM   85  C   UNL     1      -0.213   9.857   9.362  1.00  0.00     0.209 A 
ENDBRANCH  80  81
BRANCH  80  86
HETATM   86  C   UNL     1       1.630   7.823   6.594  1.00  0.00     0.053 C 
BRANCH  86  87
HETATM   87  C   UNL     1       1.610   6.415   5.783  1.00  0.00     0.094 C 
BRANCH  87  88
HETATM   88  C   UNL     1       1.065   6.453   4.283  1.00  0.00     0.051 C 
BRANCH  88  89
HETATM   89  C   UNL     1       1.479   5.299   3.232  1.00  0.00     0.094 C 
BRANCH  89  90
HETATM   90  N   UNL     1       2.242   5.797   2.069  1.00  0.00    -0.345 N 
HETATM   91  C   UNL     1       3.500   6.335   2.047  1.00  0.00     0.111 A 
HETATM   92  C   UNL     1       3.691   6.800   0.766  1.00  0.00     0.135 A 
HETATM   93  N   UNL     1       2.577   6.593   0.013  1.00  0.00    -0.255 NA
HETATM   94  C   UNL     1       1.744   5.954   0.800  1.00  0.00     0.209 A 
ENDBRANCH  89  90
BRANCH  89  95
HETATM   95  C   UNL     1       0.248   4.468   2.682  1.00  0.00     0.051 C 
BRANCH  95  96
HETATM   96  C   UNL     1      -1.236   4.816   3.143  1.00  0.00     0.094 C 
BRANCH  96  97
HETATM   97  C   UNL     1      -2.283   4.596   1.979  1.00  0.00     0.051 C 
BRANCH  97  98
HETATM   98  C   UNL     1      -2.991   5.762   1.224  1.00  0.00     0.089 C 
HETATM   99  C   UNL     1      -3.930   6.504   2.197  1.00  0.00     0.033 C 
BRANCH  98 100
HETATM  100  N   UNL     1      -2.105   6.748   0.614  1.00  0.00    -0.334 N 
HETATM  101  C   UNL     1      -1.651   7.909   1.177  1.00  0.00     0.082 A 
HETATM  102  C   UNL     1      -0.936   8.531   0.178  1.00  0.00     0.150 A 
HETATM  103  N   UNL     1      -0.953   7.787  -0.973  1.00  0.00    -0.254 NA
HETATM  104  C   UNL     1      -1.653   6.716  -0.680  1.00  0.00     0.210 A 
ENDBRANCH  98 100
ENDBRANCH  97  98
ENDBRANCH  96  97
BRANCH  96 105
HETATM  105  N   UNL     1      -1.655   4.537   4.506  1.00  0.00    -0.345 N 
HETATM  106  C   UNL     1      -2.216   5.362   5.437  1.00  0.00     0.209 A 
HETATM  107  N   UNL     1      -2.345   4.770   6.605  1.00  0.00    -0.255 NA
HETATM  108  C   UNL     1      -1.901   3.495   6.423  1.00  0.00     0.135 A 
HETATM  109  C   UNL     1      -1.467   3.322   5.131  1.00  0.00     0.111 A 
ENDBRANCH  96 105
ENDBRANCH  95  96
ENDBRANCH  89  95
ENDBRANCH  88  89
ENDBRANCH  87  88
BRANCH  87 110
HETATM  110  N   UNL     1       2.720   5.506   6.103  1.00  0.00    -0.345 N 
HETATM  111  C   UNL     1       3.884   5.328   5.402  1.00  0.00     0.111 A 
HETATM  112  C   UNL     1       4.703   4.561   6.195  1.00  0.00     0.135 A 
HETATM  113  N   UNL     1       4.122   4.340   7.406  1.00  0.00    -0.255 NA
HETATM  114  C   UNL     1       2.958   4.942   7.338  1.00  0.00     0.209 A 
ENDBRANCH  87 110
ENDBRANCH  86  87
ENDBRANCH  80  86
ENDBRANCH  79  80
ENDBRANCH  77  79
ENDBRANCH   4  77
BRANCH   5 115
HETATM  115  O   UNL     1       0.740   8.982  12.624  1.00  0.00    -0.348 OA
BRANCH 115 116
HETATM  116  C   UNL     1       1.222   9.664  13.841  1.00  0.00     0.186 C 
HETATM  117  C   UNL     1       2.676  10.189  13.698  1.00  0.00     0.179 C 
HETATM  118  O   UNL     1       2.742  11.616  13.521  1.00  0.00    -0.349 OA
HETATM  119  C   UNL     1       2.206  12.411  14.583  1.00  0.00     0.296 C 
HETATM  120  C   UNL     1       0.849  11.852  15.135  1.00  0.00     0.303 C 
HETATM  121  C   UNL     1       0.231  10.799  14.184  1.00  0.00     0.187 C 
BRANCH 117 122
HETATM  122  C   UNL     1       3.564   9.785  14.896  1.00  0.00     0.198 C 
BRANCH 122 123
HETATM  123  O   UNL     1       4.264   8.571  14.638  1.00  0.00    -0.398 OA
HETATM  124  H   UNL     1       5.000   8.769  14.025  1.00  0.00     0.209 HD
ENDBRANCH 122 123
ENDBRANCH 117 122
BRANCH 119 125
HETATM  125  O   UNL     1       2.029  13.745  14.081  1.00  0.00    -0.348 OA
BRANCH 125 126
HETATM  126  C   UNL     1       3.015  14.715  14.489  1.00  0.00     0.186 C 
HETATM  127  C   UNL     1       3.965  14.133  15.567  1.00  0.00     0.176 C 
HETATM  128  O   UNL     1       5.349  14.521  15.367  1.00  0.00    -0.379 OA
HETATM  129  C   UNL     1       5.514  15.893  15.002  1.00  0.00     0.206 C 
HETATM  130  C   UNL     1       4.915  16.178  13.610  1.00  0.00     0.272 C 
HETATM  131  C   UNL     1       3.850  15.112  13.246  1.00  0.00     0.184 C 
BRANCH 127 132
HETATM  132  C   UNL     1       3.562  14.509  17.001  1.00  0.00     0.198 C 
BRANCH 132 133
HETATM  133  O   UNL     1       2.293  15.162  16.993  1.00  0.00    -0.398 OA
HETATM  134  H   UNL     1       2.475  16.119  16.909  1.00  0.00     0.209 HD
ENDBRANCH 132 133
ENDBRANCH 127 132
BRANCH 130 135
HETATM  135  N   UNL     1       5.937  16.264  12.546  1.00  0.00     0.087 N 
HETATM  136  H   UNL     1       6.025  15.331  12.123  1.00  0.00     0.313 HD
HETATM  137  H   UNL     1       6.858  16.468  12.931  1.00  0.00     0.313 HD
ENDBRANCH 130 135
BRANCH 131 138
HETATM  138  O   UNL     1       4.509  13.963  12.671  1.00  0.00    -0.391 OA
HETATM  139  H   UNL     1       3.841  13.252  12.617  1.00  0.00     0.210 HD
ENDBRANCH 131 138
ENDBRANCH 125 126
ENDBRANCH 119 125
BRANCH 120 140
HETATM  140  N   UNL     1      -0.115  12.924  15.484  1.00  0.00     0.090 N 
HETATM  141  H   UNL     1       0.196  13.799  15.057  1.00  0.00     0.313 HD
HETATM  142  H   UNL     1       0.036  13.104  16.488  1.00  0.00     0.313 HD
ENDBRANCH 120 140
BRANCH 121 143
HETATM  143  O   UNL     1      -0.294  11.417  13.007  1.00  0.00    -0.391 OA
HETATM  144  H   UNL     1       0.269  12.198  12.828  1.00  0.00     0.210 HD
ENDBRANCH 121 143
ENDBRANCH 115 116
ENDBRANCH   5 115
TORSDOF 58
ENDMDL
MODEL 2
REMARK VINA RESULT:      -8.2      2.933     15.241
REMARK WARNING: 32 MAX_TORS EXCEEDED!!!
REMARK  58 active torsions:
REMARK  status: ('A' for Active; 'I' for Inactive)
REMARK    1  A    between atoms: C_1  and  O_30 
REMARK    2  A    between atoms: C_2  and  C_6 
REMARK    3  A    between atoms: C_3  and  O_9 
REMARK    4  A    between atoms: C_4  and  N_11 
REMARK    5  A    between atoms: C_5  and  O_12 
REMARK    6  A    between atoms: C_6  and  O_7 
REMARK    7  A    between atoms: N_11  and  C_118 
REMARK    8  A    between atoms: O_12  and  C_20 
REMARK    9  A    between atoms: O_14  and  C_18 
REMARK   10  A    between atoms: C_16  and  C_23 
REMARK   11  A    between atoms: O_17  and  C_23 
REMARK   12  A    between atoms: O_19  and  C_22 
REMARK   13  A    between atoms: O_19  and  C_42 
REMARK   14  A    between atoms: N_21  and  C_24 
REMARK   15  A    between atoms: O_26  and  C_29 
REMARK   16  A    between atoms: C_28  and  C_34 
REMARK   17  A    between atoms: O_30  and  C_33 
REMARK   18  A    between atoms: C_31  and  O_53 
REMARK   19  A    between atoms: N_32  and  C_35 
REMARK   20  A    between atoms: C_34  and  O_65 
REMARK   21  A    between atoms: O_37  and  C_41 
REMARK   22  A    between atoms: C_39  and  C_45 
REMARK   23  A    between atoms: O_40  and  C_45 
REMARK   24  A    between atoms: N_43  and  C_46 
REMARK   25  A    between atoms: O_48  and  C_52 
REMARK   26  A    between atoms: C_50  and  C_57 
REMARK   27  A    between atoms: O_51  and  C_57 
REMARK   28  A    between atoms: O_53  and  C_56 
REMARK   29  A    between atoms: N_55  and  C_58 
REMARK   30  A    between atoms: N_55  and  C_71 
REMARK   31  A    between atoms: C_71  and  C_73 
REMARK   32  A    between atoms: C_73  and  C_74 
REMARK   33  A    between atoms: C_73  and  N_87 
REMARK   34  A    between atoms: C_74  and  C_75 
REMARK   35  A    between atoms: C_75  and  C_76 
REMARK   36  A    between atoms: C_75  and  N_101 
REMARK   37  A    between atoms: C_76  and  C_77 
REMARK   38  A    between atoms: C_77  and  C_78 
REMARK   39  A    between atoms: C_77  and  N_91 
REMARK   40  A    between atoms: C_78  and  C_79 
REMARK   41  A    between atoms: C_79  and  C_80 
REMARK   42  A    between atoms: C_79  and  N_106 
REMARK   43  A    between atoms: C_80  and  C_81 
REMARK   44  A    between atoms: C_81  and  N_96 
REMARK   45  A    between atoms: N_113  and  C_119 
REMARK   46  A    between atoms: C_118  and  C_119 
REMARK   47  A    between atoms: C_119  and  C_126 
REMARK   48  A    between atoms: N_122  and  C_128 
REMARK   49  A    between atoms: C_124  and  C_128 
REMARK   50  A    between atoms: C_124  and  C_130 
REMARK   51  A    between atoms: N_125  and  C_135 
REMARK   52  A    between atoms: C_126  and  C_130 
REMARK   53  A    between atoms: C_128  and  C_132 
REMARK   54  A    between atoms: N_129  and  C_130 
REMARK   55  A    between atoms: C_132  and  C_137 
REMARK   56  A    between atoms: C_135  and  C_136 
REMARK   57  A    between atoms: C_136  and  C_137 
REMARK   58  A    between atoms: C_137  and  N_140 
ROOT
HETATM    1  C   UNL     1      -0.981  -1.273  15.892  1.00  0.00     0.186 C 
HETATM    2  C   UNL     1      -2.449  -1.403  15.329  1.00  0.00     0.179 C 
HETATM    3  C   UNL     1      -0.718  -2.041  17.227  1.00  0.00     0.188 C 
HETATM    4  C   UNL     1      -1.622  -3.301  17.437  1.00  0.00     0.306 C 
HETATM    5  C   UNL     1      -3.035  -2.623  17.297  1.00  0.00     0.296 C 
HETATM    6  O   UNL     1      -3.293  -2.433  15.920  1.00  0.00    -0.349 OA
ENDROOT
BRANCH   1   7
HETATM    7  O   UNL     1      -0.035  -1.655  14.874  1.00  0.00    -0.348 OA
BRANCH   7   8
HETATM    8  C   UNL     1       0.706  -0.559  14.292  1.00  0.00     0.296 C 
HETATM    9  O   UNL     1       0.398   0.615  15.057  1.00  0.00    -0.349 OA
HETATM   10  C   UNL     1       0.935   1.862  14.559  1.00  0.00     0.179 C 
HETATM   11  C   UNL     1       0.682   2.064  13.049  1.00  0.00     0.186 C 
HETATM   12  C   UNL     1      -0.282   0.996  12.521  1.00  0.00     0.187 C 
HETATM   13  C   UNL     1       0.315  -0.392  12.782  1.00  0.00     0.303 C 
BRANCH  10  14
HETATM   14  C   UNL     1       2.430   1.996  14.908  1.00  0.00     0.198 C 
BRANCH  14  15
HETATM   15  O   UNL     1       2.649   1.988  16.317  1.00  0.00    -0.398 OA
HETATM   16  H   UNL     1       1.957   1.431  16.721  1.00  0.00     0.209 HD
ENDBRANCH  14  15
ENDBRANCH  10  14
BRANCH  11  17
HETATM   17  O   UNL     1       0.088   3.331  12.756  1.00  0.00    -0.348 OA
BRANCH  17  18
HETATM   18  C   UNL     1      -0.296   4.101  13.886  1.00  0.00     0.296 C 
HETATM   19  O   UNL     1      -1.588   3.681  14.316  1.00  0.00    -0.351 OA
HETATM   20  C   UNL     1      -2.468   4.701  14.815  1.00  0.00     0.150 C 
HETATM   21  C   UNL     1      -1.706   5.754  15.614  1.00  0.00     0.068 C 
HETATM   22  C   UNL     1      -0.570   6.393  14.804  1.00  0.00     0.158 C 
HETATM   23  C   UNL     1      -0.174   5.609  13.524  1.00  0.00     0.303 C 
BRANCH  20  24
HETATM   24  C   UNL     1      -3.555   4.030  15.671  1.00  0.00     0.196 C 
BRANCH  24  25
HETATM   25  O   UNL     1      -4.375   3.201  14.848  1.00  0.00    -0.398 OA
HETATM   26  H   UNL     1      -4.122   2.278  15.020  1.00  0.00     0.209 HD
ENDBRANCH  24  25
ENDBRANCH  20  24
BRANCH  22  27
HETATM   27  O   UNL     1      -0.924   7.739  14.470  1.00  0.00    -0.393 OA
HETATM   28  H   UNL     1      -0.992   7.751  13.493  1.00  0.00     0.210 HD
ENDBRANCH  22  27
BRANCH  23  29
HETATM   29  N   UNL     1      -1.010   6.100  12.392  1.00  0.00     0.097 N 
HETATM   30  H   UNL     1      -1.650   5.333  12.155  1.00  0.00     0.316 HD
BRANCH  29  31
HETATM   31  C   UNL     1      -0.320   6.400  11.125  1.00  0.00     0.296 C 
BRANCH  31  32
HETATM   32  C   UNL     1      -0.417   7.891  10.582  1.00  0.00     0.120 C 
BRANCH  32  33
HETATM   33  C   UNL     1      -0.129   7.909   9.034  1.00  0.00     0.053 C 
BRANCH  33  34
HETATM   34  C   UNL     1       0.705   9.089   8.363  1.00  0.00     0.094 C 
BRANCH  34  35
HETATM   35  C   UNL     1       1.564   8.551   7.150  1.00  0.00     0.051 C 
BRANCH  35  36
HETATM   36  C   UNL     1       1.245   7.195   6.406  1.00  0.00     0.094 C 
BRANCH  36  37
HETATM   37  C   UNL     1       0.819   7.417   4.911  1.00  0.00     0.051 C 
BRANCH  37  38
HETATM   38  C   UNL     1       0.017   6.290   4.158  1.00  0.00     0.094 C 
BRANCH  38  39
HETATM   39  C   UNL     1       0.676   5.932   2.775  1.00  0.00     0.051 C 
BRANCH  39  40
HETATM   40  C   UNL     1       0.931   6.987   1.663  1.00  0.00     0.089 C 
HETATM   41  C   UNL     1       2.142   6.545   0.818  1.00  0.00     0.033 C 
BRANCH  40  42
HETATM   42  N   UNL     1      -0.186   7.245   0.765  1.00  0.00    -0.334 N 
HETATM   43  C   UNL     1      -0.782   6.312  -0.044  1.00  0.00     0.210 A 
HETATM   44  N   UNL     1      -1.807   6.817  -0.692  1.00  0.00    -0.254 NA
HETATM   45  C   UNL     1      -1.877   8.124  -0.285  1.00  0.00     0.150 A 
HETATM   46  C   UNL     1      -0.880   8.414   0.620  1.00  0.00     0.082 A 
ENDBRANCH  40  42
ENDBRANCH  39  40
ENDBRANCH  38  39
BRANCH  38  47
HETATM   47  N   UNL     1      -0.591   5.226   4.936  1.00  0.00    -0.345 N 
HETATM   48  C   UNL     1      -0.169   3.948   5.150  1.00  0.00     0.209 A 
HETATM   49  N   UNL     1      -1.039   3.256   5.852  1.00  0.00    -0.255 NA
HETATM   50  C   UNL     1      -2.040   4.127   6.165  1.00  0.00     0.135 A 
HETATM   51  C   UNL     1      -1.788   5.358   5.608  1.00  0.00     0.111 A 
ENDBRANCH  38  47
ENDBRANCH  37  38
ENDBRANCH  36  37
BRANCH  36  52
HETATM   52  N   UNL     1       2.391   6.271   6.425  1.00  0.00    -0.345 N 
HETATM   53  C   UNL     1       2.739   5.443   7.458  1.00  0.00     0.209 A 
HETATM   54  N   UNL     1       3.764   4.680   7.153  1.00  0.00    -0.255 NA
HETATM   55  C   UNL     1       4.109   5.029   5.881  1.00  0.00     0.135 A 
HETATM   56  C   UNL     1       3.235   5.970   5.389  1.00  0.00     0.111 A 
ENDBRANCH  36  52
ENDBRANCH  35  36
ENDBRANCH  34  35
BRANCH  34  57
HETATM   57  N   UNL     1      -0.009  10.362   8.275  1.00  0.00    -0.345 N 
HETATM   58  C   UNL     1       0.487  11.586   8.653  1.00  0.00     0.209 A 
HETATM   59  N   UNL     1      -0.438  12.516   8.693  1.00  0.00    -0.255 NA
HETATM   60  C   UNL     1      -1.599  11.877   8.381  1.00  0.00     0.135 A 
HETATM   61  C   UNL     1      -1.368  10.539   8.179  1.00  0.00     0.111 A 
ENDBRANCH  34  57
ENDBRANCH  33  34
ENDBRANCH  32  33
BRANCH  32  62
HETATM   62  N   UNL     1       0.269   8.920  11.372  1.00  0.00    -0.344 N 
HETATM   63  C   UNL     1       1.537   8.949  11.889  1.00  0.00     0.111 A 
HETATM   64  C   UNL     1       1.665  10.144  12.552  1.00  0.00     0.135 A 
HETATM   65  N   UNL     1       0.499  10.839  12.502  1.00  0.00    -0.255 NA
HETATM   66  C   UNL     1      -0.320  10.083  11.809  1.00  0.00     0.209 A 
ENDBRANCH  32  62
ENDBRANCH  31  32
ENDBRANCH  29  31
ENDBRANCH  23  29
ENDBRANCH  17  18
ENDBRANCH  11  17
BRANCH  12  67
HETATM   67  O   UNL     1      -1.586   1.107  13.119  1.00  0.00    -0.391 OA
HETATM   68  H   UNL     1      -2.201   0.571  12.582  1.00  0.00     0.210 HD
ENDBRANCH  12  67
BRANCH  13  69
HETATM   69  N   UNL     1      -0.607  -1.414  12.245  1.00  0.00     0.090 N 
HETATM   70  H   UNL     1      -0.080  -1.934  11.535  1.00  0.00     0.313 HD
HETATM   71  H   UNL     1      -1.300  -0.893  11.694  1.00  0.00     0.313 HD
ENDBRANCH  13  69
ENDBRANCH   7   8
ENDBRANCH   1   7
BRANCH   2  72
HETATM   72  C   UNL     1      -3.160  -0.025  15.430  1.00  0.00     0.198 C 
BRANCH  72  73
HETATM   73  O   UNL     1      -2.292   0.968  15.963  1.00  0.00    -0.398 OA
HETATM   74  H   UNL     1      -1.384   0.757  15.682  1.00  0.00     0.209 HD
ENDBRANCH  72  73
ENDBRANCH   2  72
BRANCH   3  75
HETATM   75  O   UNL     1       0.667  -2.283  17.471  1.00  0.00    -0.391 OA
HETATM   76  H   UNL     1       1.014  -2.795  16.718  1.00  0.00     0.210 HD
ENDBRANCH   3  75
BRANCH   4  77
HETATM   77  N   UNL     1      -1.023  -4.454  16.648  1.00  0.00     0.097 N 
HETATM   78  H   UNL     1      -0.063  -4.201  16.418  1.00  0.00     0.316 HD
BRANCH  77  79
HETATM   79  C   UNL     1      -1.016  -5.832  17.198  1.00  0.00     0.296 C 
BRANCH  79  80
HETATM   80  C   UNL     1      -2.347  -6.792  16.959  1.00  0.00     0.120 C 
BRANCH  80  81
HETATM   81  N   UNL     1      -3.363  -6.694  18.010  1.00  0.00    -0.344 N 
HETATM   82  C   UNL     1      -3.205  -6.500  19.357  1.00  0.00     0.111 A 
HETATM   83  C   UNL     1      -4.467  -6.598  19.904  1.00  0.00     0.135 A 
HETATM   84  N   UNL     1      -5.390  -6.862  18.932  1.00  0.00    -0.255 NA
HETATM   85  C   UNL     1      -4.702  -6.942  17.829  1.00  0.00     0.209 A 
ENDBRANCH  80  81
BRANCH  80  86
HETATM   86  C   UNL     1      -2.883  -6.768  15.461  1.00  0.00     0.053 C 
BRANCH  86  87
HETATM   87  C   UNL     1      -2.359  -7.637  14.192  1.00  0.00     0.094 C 
BRANCH  87  88
HETATM   88  C   UNL     1      -0.892  -8.258  14.298  1.00  0.00     0.051 C 
BRANCH  88  89
HETATM   89  C   UNL     1      -0.105  -8.732  12.970  1.00  0.00     0.094 C 
BRANCH  89  90
HETATM   90  N   UNL     1       0.917  -9.769  13.222  1.00  0.00    -0.345 N 
HETATM   91  C   UNL     1       1.966 -10.138  12.424  1.00  0.00     0.111 A 
HETATM   92  C   UNL     1       2.517 -11.253  13.014  1.00  0.00     0.135 A 
HETATM   93  N   UNL     1       1.819 -11.595  14.131  1.00  0.00    -0.255 NA
HETATM   94  C   UNL     1       0.898 -10.669  14.257  1.00  0.00     0.209 A 
ENDBRANCH  89  90
BRANCH  89  95
HETATM   95  C   UNL     1       0.592  -7.546  12.186  1.00  0.00     0.051 C 
BRANCH  95  96
HETATM   96  C   UNL     1       0.053  -7.092  10.758  1.00  0.00     0.094 C 
BRANCH  96  97
HETATM   97  C   UNL     1       0.248  -8.219   9.668  1.00  0.00     0.051 C 
BRANCH  97  98
HETATM   98  C   UNL     1       0.823  -7.950   8.243  1.00  0.00     0.089 C 
HETATM   99  C   UNL     1       1.551  -6.590   8.235  1.00  0.00     0.033 C 
BRANCH  98 100
HETATM  100  N   UNL     1       1.746  -8.959   7.735  1.00  0.00    -0.334 N 
HETATM  101  C   UNL     1       2.463  -9.866   8.469  1.00  0.00     0.082 A 
HETATM  102  C   UNL     1       3.252 -10.520   7.550  1.00  0.00     0.150 A 
HETATM  103  N   UNL     1       3.043 -10.030   6.287  1.00  0.00    -0.254 NA
HETATM  104  C   UNL     1       2.126  -9.101   6.426  1.00  0.00     0.210 A 
ENDBRANCH  98 100
ENDBRANCH  97  98
ENDBRANCH  96  97
BRANCH  96 105
HETATM  105  N   UNL     1      -1.122  -6.242  10.665  1.00  0.00    -0.345 N 
HETATM  106  C   UNL     1      -2.005  -6.076   9.637  1.00  0.00     0.209 A 
HETATM  107  N   UNL     1      -2.876  -5.123   9.887  1.00  0.00    -0.255 NA
HETATM  108  C   UNL     1      -2.590  -4.680  11.143  1.00  0.00     0.135 A 
HETATM  109  C   UNL     1      -1.506  -5.356  11.649  1.00  0.00     0.111 A 
ENDBRANCH  96 105
ENDBRANCH  95  96
ENDBRANCH  89  95
ENDBRANCH  88  89
ENDBRANCH  87  88
BRANCH  87 110
HETATM  110  N   UNL     1      -3.402  -8.415  13.506  1.00  0.00    -0.345 N 
HETATM  111  C   UNL     1      -3.737  -8.375  12.178  1.00  0.00     0.111 A 
HETATM  112  C   UNL     1      -4.595  -9.426  11.963  1.00  0.00     0.135 A 
HETATM  113  N   UNL     1      -4.726 -10.175  13.092  1.00  0.00    -0.255 NA
HETATM  114  C   UNL     1      -3.979  -9.571  13.986  1.00  0.00     0.209 A 
ENDBRANCH  87 110
ENDBRANCH  86  87
ENDBRANCH  80  86
ENDBRANCH  79  80
ENDBRANCH  77  79
ENDBRANCH   4  77
BRANCH   5 115
HETATM  115  O   UNL     1      -4.084  -3.257  18.057  1.00  0.00    -0.348 OA
BRANCH 115 116
HETATM  116  C   UNL     1      -4.751  -2.353  19.014  1.00  0.00     0.186 C 
HETATM  117  C   UNL     1      -5.277  -1.054  18.346  1.00  0.00     0.179 C 
HETATM  118  O   UNL     1      -6.705  -1.052  18.174  1.00  0.00    -0.349 OA
HETATM  119  C   UNL     1      -7.487  -1.148  19.369  1.00  0.00     0.296 C 
HETATM  120  C   UNL     1      -6.922  -2.206  20.380  1.00  0.00     0.303 C 
HETATM  121  C   UNL     1      -5.882  -3.139  19.715  1.00  0.00     0.187 C 
BRANCH 117 122
HETATM  122  C   UNL     1      -4.856   0.214  19.123  1.00  0.00     0.198 C 
BRANCH 122 123
HETATM  123  O   UNL     1      -3.488   0.536  18.890  1.00  0.00    -0.398 OA
HETATM  124  H   UNL     1      -3.111  -0.146  18.300  1.00  0.00     0.209 HD
ENDBRANCH 122 123
ENDBRANCH 117 122
BRANCH 119 125
HETATM  125  O   UNL     1      -8.828  -1.493  18.984  1.00  0.00    -0.348 OA
BRANCH 125 126
HETATM  126  C   UNL     1      -9.826  -0.468  19.166  1.00  0.00     0.186 C 
HETATM  127  C   UNL     1      -9.365   0.587  20.205  1.00  0.00     0.176 C 
HETATM  128  O   UNL     1      -9.705   1.944  19.818  1.00  0.00    -0.379 OA
HETATM  129  C   UNL     1     -11.019   2.073  19.272  1.00  0.00     0.206 C 
HETATM  130  C   UNL     1     -11.141   1.334  17.924  1.00  0.00     0.272 C 
HETATM  131  C   UNL     1     -10.055   0.235  17.805  1.00  0.00     0.184 C 
BRANCH 127 132
HETATM  132  C   UNL     1      -9.921   0.336  21.615  1.00  0.00     0.198 C 
BRANCH 132 133
HETATM  133  O   UNL     1      -8.921  -0.280  22.428  1.00  0.00    -0.398 OA
HETATM  134  H   UNL     1      -8.819  -1.194  22.096  1.00  0.00     0.209 HD
ENDBRANCH 132 133
ENDBRANCH 127 132
BRANCH 130 135
HETATM  135  N   UNL     1     -11.079   2.241  16.758  1.00  0.00     0.087 N 
HETATM  136  H   UNL     1     -11.820   1.960  16.105  1.00  0.00     0.313 HD
HETATM  137  H   UNL     1     -10.209   2.122  16.240  1.00  0.00     0.313 HD
ENDBRANCH 130 135
BRANCH 131 138
HETATM  138  O   UNL     1      -8.833   0.829  17.312  1.00  0.00    -0.391 OA
HETATM  139  H   UNL     1      -8.853   0.749  16.339  1.00  0.00     0.210 HD
ENDBRANCH 131 138
ENDBRANCH 125 126
ENDBRANCH 119 125
BRANCH 120 140
HETATM  140  N   UNL     1      -7.990  -2.965  21.075  1.00  0.00     0.090 N 
HETATM  141  H   UNL     1      -8.021  -3.913  20.696  1.00  0.00     0.313 HD
HETATM  142  H   UNL     1      -8.873  -2.562  20.729  1.00  0.00     0.313 HD
ENDBRANCH 120 140
BRANCH 121 143
HETATM  143  O   UNL     1      -6.515  -4.061  18.825  1.00  0.00    -0.391 OA
HETATM  144  H   UNL     1      -7.417  -3.717  18.664  1.00  0.00     0.210 HD
ENDBRANCH 121 143
ENDBRANCH 115 116
ENDBRANCH   5 115
TORSDOF 58
ENDMDL
MODEL 3
REMARK VINA RESULT:      -8.1      3.728     14.956
REMARK WARNING: 32 MAX_TORS EXCEEDED!!!
REMARK  58 active torsions:
REMARK  status: ('A' for Active; 'I' for Inactive)
REMARK    1  A    between atoms: C_1  and  O_30 
REMARK    2  A    between atoms: C_2  and  C_6 
REMARK    3  A    between atoms: C_3  and  O_9 
REMARK    4  A    between atoms: C_4  and  N_11 
REMARK    5  A    between atoms: C_5  and  O_12 
REMARK    6  A    between atoms: C_6  and  O_7 
REMARK    7  A    between atoms: N_11  and  C_118 
REMARK    8  A    between atoms: O_12  and  C_20 
REMARK    9  A    between atoms: O_14  and  C_18 
REMARK   10  A    between atoms: C_16  and  C_23 
REMARK   11  A    between atoms: O_17  and  C_23 
REMARK   12  A    between atoms: O_19  and  C_22 
REMARK   13  A    between atoms: O_19  and  C_42 
REMARK   14  A    between atoms: N_21  and  C_24 
REMARK   15  A    between atoms: O_26  and  C_29 
REMARK   16  A    between atoms: C_28  and  C_34 
REMARK   17  A    between atoms: O_30  and  C_33 
REMARK   18  A    between atoms: C_31  and  O_53 
REMARK   19  A    between atoms: N_32  and  C_35 
REMARK   20  A    between atoms: C_34  and  O_65 
REMARK   21  A    between atoms: O_37  and  C_41 
REMARK   22  A    between atoms: C_39  and  C_45 
REMARK   23  A    between atoms: O_40  and  C_45 
REMARK   24  A    between atoms: N_43  and  C_46 
REMARK   25  A    between atoms: O_48  and  C_52 
REMARK   26  A    between atoms: C_50  and  C_57 
REMARK   27  A    between atoms: O_51  and  C_57 
REMARK   28  A    between atoms: O_53  and  C_56 
REMARK   29  A    between atoms: N_55  and  C_58 
REMARK   30  A    between atoms: N_55  and  C_71 
REMARK   31  A    between atoms: C_71  and  C_73 
REMARK   32  A    between atoms: C_73  and  C_74 
REMARK   33  A    between atoms: C_73  and  N_87 
REMARK   34  A    between atoms: C_74  and  C_75 
REMARK   35  A    between atoms: C_75  and  C_76 
REMARK   36  A    between atoms: C_75  and  N_101 
REMARK   37  A    between atoms: C_76  and  C_77 
REMARK   38  A    between atoms: C_77  and  C_78 
REMARK   39  A    between atoms: C_77  and  N_91 
REMARK   40  A    between atoms: C_78  and  C_79 
REMARK   41  A    between atoms: C_79  and  C_80 
REMARK   42  A    between atoms: C_79  and  N_106 
REMARK   43  A    between atoms: C_80  and  C_81 
REMARK   44  A    between atoms: C_81  and  N_96 
REMARK   45  A    between atoms: N_113  and  C_119 
REMARK   46  A    between atoms: C_118  and  C_119 
REMARK   47  A    between atoms: C_119  and  C_126 
REMARK   48  A    between atoms: N_122  and  C_128 
REMARK   49  A    between atoms: C_124  and  C_128 
REMARK   50  A    between atoms: C_124  and  C_130 
REMARK   51  A    between atoms: N_125  and  C_135 
REMARK   52  A    between atoms: C_126  and  C_130 
REMARK   53  A    between atoms: C_128  and  C_132 
REMARK   54  A    between atoms: N_129  and  C_130 
REMARK   55  A    between atoms: C_132  and  C_137 
REMARK   56  A    between atoms: C_135  and  C_136 
REMARK   57  A    between atoms: C_136  and  C_137 
REMARK   58  A    between atoms: C_137  and  N_140 
ROOT
HETATM    1  C   UNL     1       0.030   7.577   9.388  1.00  0.00     0.186 C 
HETATM    2  C   UNL     1       0.836   8.529   8.422  1.00  0.00     0.179 C 
HETATM    3  C   UNL     1       0.249   6.049   9.141  1.00  0.00     0.188 C 
HETATM    4  C   UNL     1       1.642   5.688   8.526  1.00  0.00     0.306 C 
HETATM    5  C   UNL     1       1.592   6.595   7.240  1.00  0.00     0.296 C 
HETATM    6  O   UNL     1       1.896   7.919   7.631  1.00  0.00    -0.349 OA
ENDROOT
BRANCH   1   7
HETATM    7  O   UNL     1       0.306   7.929  10.759  1.00  0.00    -0.348 OA
BRANCH   7   8
HETATM    8  C   UNL     1      -0.202   9.219  11.168  1.00  0.00     0.296 C 
HETATM    9  O   UNL     1       0.929  10.083  11.346  1.00  0.00    -0.349 OA
HETATM   10  C   UNL     1       0.653  11.395  11.887  1.00  0.00     0.179 C 
HETATM   11  C   UNL     1      -0.252  11.350  13.138  1.00  0.00     0.186 C 
HETATM   12  C   UNL     1      -0.428   9.905  13.619  1.00  0.00     0.187 C 
HETATM   13  C   UNL     1      -1.038   9.070  12.487  1.00  0.00     0.303 C 
BRANCH  10  14
HETATM   14  C   UNL     1       0.078  12.328  10.803  1.00  0.00     0.198 C 
BRANCH  14  15
HETATM   15  O   UNL     1      -1.347  12.286  10.768  1.00  0.00    -0.398 OA
HETATM   16  H   UNL     1      -1.670  13.206  10.751  1.00  0.00     0.209 HD
ENDBRANCH  14  15
ENDBRANCH  10  14
BRANCH  11  17
HETATM   17  O   UNL     1       0.292  12.084  14.238  1.00  0.00    -0.348 OA
BRANCH  17  18
HETATM   18  C   UNL     1      -0.329  13.334  14.504  1.00  0.00     0.296 C 
HETATM   19  O   UNL     1      -1.255  13.623  13.460  1.00  0.00    -0.351 OA
HETATM   20  C   UNL     1      -1.373  14.998  13.062  1.00  0.00     0.150 C 
HETATM   21  C   UNL     1      -1.260  15.937  14.260  1.00  0.00     0.068 C 
HETATM   22  C   UNL     1       0.043  15.730  15.042  1.00  0.00     0.158 C 
HETATM   23  C   UNL     1       0.781  14.402  14.722  1.00  0.00     0.303 C 
BRANCH  20  24
HETATM   24  C   UNL     1      -2.717  15.180  12.337  1.00  0.00     0.196 C 
BRANCH  24  25
HETATM   25  O   UNL     1      -3.295  13.904  12.064  1.00  0.00    -0.398 OA
HETATM   26  H   UNL     1      -4.217  14.054  11.793  1.00  0.00     0.209 HD
ENDBRANCH  24  25
ENDBRANCH  20  24
BRANCH  22  27
HETATM   27  O   UNL     1       0.913  16.844  14.821  1.00  0.00    -0.393 OA
HETATM   28  H   UNL     1       1.810  16.514  15.033  1.00  0.00     0.210 HD
ENDBRANCH  22  27
BRANCH  23  29
HETATM   29  N   UNL     1       1.717  14.643  13.588  1.00  0.00     0.097 N 
HETATM   30  H   UNL     1       1.582  13.863  12.935  1.00  0.00     0.316 HD
BRANCH  29  31
HETATM   31  C   UNL     1       3.159  14.620  13.887  1.00  0.00     0.296 C 
BRANCH  31  32
HETATM   32  C   UNL     1       4.042  13.544  13.119  1.00  0.00     0.120 C 
BRANCH  32  33
HETATM   33  C   UNL     1       3.849  12.130  13.783  1.00  0.00     0.053 C 
BRANCH  33  34
HETATM   34  C   UNL     1       3.987  11.930  15.357  1.00  0.00     0.094 C 
BRANCH  34  35
HETATM   35  C   UNL     1       3.523  10.480  15.783  1.00  0.00     0.051 C 
BRANCH  35  36
HETATM   36  C   UNL     1       3.100  10.113  17.260  1.00  0.00     0.094 C 
BRANCH  36  37
HETATM   37  C   UNL     1       1.639   9.542  17.340  1.00  0.00     0.051 C 
BRANCH  37  38
HETATM   38  C   UNL     1       0.455  10.498  17.743  1.00  0.00     0.094 C 
BRANCH  38  39
HETATM   39  C   UNL     1       0.914  12.002  17.793  1.00  0.00     0.051 C 
BRANCH  39  40
HETATM   40  C   UNL     1       1.095  12.786  19.121  1.00  0.00     0.089 C 
HETATM   41  C   UNL     1       2.554  13.273  19.223  1.00  0.00     0.033 C 
BRANCH  40  42
HETATM   42  N   UNL     1       0.215  13.932  19.307  1.00  0.00    -0.334 N 
HETATM   43  C   UNL     1       0.225  14.768  20.394  1.00  0.00     0.210 A 
HETATM   44  N   UNL     1      -0.634  15.752  20.255  1.00  0.00    -0.254 NA
HETATM   45  C   UNL     1      -1.218  15.546  19.032  1.00  0.00     0.150 A 
HETATM   46  C   UNL     1      -0.707  14.421  18.424  1.00  0.00     0.082 A 
ENDBRANCH  40  42
ENDBRANCH  39  40
ENDBRANCH  38  39
BRANCH  38  47
HETATM   47  N   UNL     1      -0.883  10.193  17.270  1.00  0.00    -0.345 N 
HETATM   48  C   UNL     1      -1.470   8.986  17.029  1.00  0.00     0.209 A 
HETATM   49  N   UNL     1      -2.679   9.122  16.528  1.00  0.00    -0.255 NA
HETATM   50  C   UNL     1      -2.919  10.464  16.497  1.00  0.00     0.135 A 
HETATM   51  C   UNL     1      -1.820  11.152  16.951  1.00  0.00     0.111 A 
ENDBRANCH  38  47
ENDBRANCH  37  38
ENDBRANCH  36  37
BRANCH  36  52
HETATM   52  N   UNL     1       4.011   9.129  17.867  1.00  0.00    -0.345 N 
HETATM   53  C   UNL     1       3.648   7.936  18.429  1.00  0.00     0.209 A 
HETATM   54  N   UNL     1       4.690   7.238  18.819  1.00  0.00    -0.255 NA
HETATM   55  C   UNL     1       5.775   8.007  18.517  1.00  0.00     0.135 A 
HETATM   56  C   UNL     1       5.382   9.156  17.873  1.00  0.00     0.111 A 
ENDBRANCH  36  52
ENDBRANCH  35  36
ENDBRANCH  34  35
BRANCH  34  57
HETATM   57  N   UNL     1       5.178  12.543  15.944  1.00  0.00    -0.345 N 
HETATM   58  C   UNL     1       5.222  13.761  16.576  1.00  0.00     0.209 A 
HETATM   59  N   UNL     1       6.450  14.175  16.792  1.00  0.00    -0.255 NA
HETATM   60  C   UNL     1       7.248  13.222  16.237  1.00  0.00     0.135 A 
HETATM   61  C   UNL     1       6.487  12.238  15.656  1.00  0.00     0.111 A 
ENDBRANCH  34  57
ENDBRANCH  33  34
ENDBRANCH  32  33
BRANCH  32  62
HETATM   62  N   UNL     1       5.427  13.928  12.823  1.00  0.00    -0.344 N 
HETATM   63  C   UNL     1       6.436  13.225  12.218  1.00  0.00     0.111 A 
HETATM   64  C   UNL     1       7.534  14.050  12.200  1.00  0.00     0.135 A 
HETATM   65  N   UNL     1       7.251  15.227  12.815  1.00  0.00    -0.255 NA
HETATM   66  C   UNL     1       5.997  15.123  13.192  1.00  0.00     0.209 A 
ENDBRANCH  32  62
ENDBRANCH  31  32
ENDBRANCH  29  31
ENDBRANCH  23  29
ENDBRANCH  17  18
ENDBRANCH  11  17
BRANCH  12  67
HETATM   67  O   UNL     1       0.816   9.332  14.058  1.00  0.00    -0.391 OA
HETATM   68  H   UNL     1       1.294   9.026  13.263  1.00  0.00     0.210 HD
ENDBRANCH  12  67
BRANCH  13  69
HETATM   69  N   UNL     1      -1.230   7.687  12.968  1.00  0.00     0.090 N 
HETATM   70  H   UNL     1      -0.420   7.471  13.558  1.00  0.00     0.313 HD
HETATM   71  H   UNL     1      -1.092   7.090  12.143  1.00  0.00     0.313 HD
ENDBRANCH  13  69
ENDBRANCH   7   8
ENDBRANCH   1   7
BRANCH   2  72
HETATM   72  C   UNL     1      -0.158   9.264   7.483  1.00  0.00     0.198 C 
BRANCH  72  73
HETATM   73  O   UNL     1      -1.447   9.373   8.075  1.00  0.00    -0.398 OA
HETATM   74  H   UNL     1      -2.040   9.796   7.431  1.00  0.00     0.209 HD
ENDBRANCH  72  73
ENDBRANCH   2  72
BRANCH   3  75
HETATM   75  O   UNL     1      -0.107   5.244  10.263  1.00  0.00    -0.391 OA
HETATM   76  H   UNL     1      -0.397   5.841  10.976  1.00  0.00     0.210 HD
ENDBRANCH   3  75
BRANCH   4  77
HETATM   77  N   UNL     1       2.667   5.660   9.648  1.00  0.00     0.097 N 
HETATM   78  H   UNL     1       2.282   6.194  10.426  1.00  0.00     0.316 HD
BRANCH  77  79
HETATM   79  C   UNL     1       3.180   4.374  10.181  1.00  0.00     0.296 C 
BRANCH  79  80
HETATM   80  C   UNL     1       2.876   3.990  11.766  1.00  0.00     0.120 C 
BRANCH  80  81
HETATM   81  N   UNL     1       2.829   5.140  12.671  1.00  0.00    -0.344 N 
HETATM   82  C   UNL     1       3.850   5.760  13.344  1.00  0.00     0.111 A 
HETATM   83  C   UNL     1       3.254   6.713  14.142  1.00  0.00     0.135 A 
HETATM   84  N   UNL     1       1.896   6.683  13.989  1.00  0.00    -0.255 NA
HETATM   85  C   UNL     1       1.676   5.724  13.135  1.00  0.00     0.209 A 
ENDBRANCH  80  81
BRANCH  80  86
HETATM   86  C   UNL     1       1.720   2.910  11.944  1.00  0.00     0.053 C 
BRANCH  86  87
HETATM   87  C   UNL     1       1.196   2.216  13.316  1.00  0.00     0.094 C 
BRANCH  87  88
HETATM   88  C   UNL     1      -0.179   1.406  13.236  1.00  0.00     0.051 C 
BRANCH  88  89
HETATM   89  C   UNL     1      -0.592   0.377  14.410  1.00  0.00     0.094 C 
BRANCH  89  90
HETATM   90  N   UNL     1      -1.466  -0.724  13.955  1.00  0.00    -0.345 N 
HETATM   91  C   UNL     1      -2.385  -1.433  14.681  1.00  0.00     0.111 A 
HETATM   92  C   UNL     1      -2.809  -2.454  13.861  1.00  0.00     0.135 A 
HETATM   93  N   UNL     1      -2.155  -2.410  12.669  1.00  0.00    -0.255 NA
HETATM   94  C   UNL     1      -1.393  -1.344  12.734  1.00  0.00     0.209 A 
ENDBRANCH  89  90
BRANCH  89  95
HETATM   95  C   UNL     1      -1.292   1.071  15.648  1.00  0.00     0.051 C 
BRANCH  95  96
HETATM   96  C   UNL     1      -2.307   2.279  15.433  1.00  0.00     0.094 C 
BRANCH  96  97
HETATM   97  C   UNL     1      -3.777   1.902  15.878  1.00  0.00     0.051 C 
BRANCH  97  98
HETATM   98  C   UNL     1      -4.152   1.454  17.324  1.00  0.00     0.089 C 
HETATM   99  C   UNL     1      -5.455   2.158  17.754  1.00  0.00     0.033 C 
BRANCH  98 100
HETATM  100  N   UNL     1      -4.331   0.019  17.513  1.00  0.00    -0.334 N 
HETATM  101  C   UNL     1      -3.544  -0.821  18.254  1.00  0.00     0.082 A 
HETATM  102  C   UNL     1      -4.064  -2.077  18.037  1.00  0.00     0.150 A 
HETATM  103  N   UNL     1      -5.133  -2.024  17.180  1.00  0.00    -0.254 NA
HETATM  104  C   UNL     1      -5.278  -0.752  16.890  1.00  0.00     0.210 A 
ENDBRANCH  98 100
ENDBRANCH  97  98
ENDBRANCH  96  97
BRANCH  96 105
HETATM  105  N   UNL     1      -1.859   3.646  15.636  1.00  0.00    -0.345 N 
HETATM  106  C   UNL     1      -1.915   4.721  14.796  1.00  0.00     0.209 A 
HETATM  107  N   UNL     1      -1.294   5.768  15.294  1.00  0.00    -0.255 NA
HETATM  108  C   UNL     1      -0.857   5.385  16.526  1.00  0.00     0.135 A 
HETATM  109  C   UNL     1      -1.192   4.075  16.764  1.00  0.00     0.111 A 
ENDBRANCH  96 105
ENDBRANCH  95  96
ENDBRANCH  89  95
ENDBRANCH  88  89
ENDBRANCH  87  88
BRANCH  87 110
HETATM  110  N   UNL     1       2.260   1.706  14.193  1.00  0.00    -0.345 N 
HETATM  111  C   UNL     1       2.651   2.201  15.409  1.00  0.00     0.111 A 
HETATM  112  C   UNL     1       3.509   1.274  15.949  1.00  0.00     0.135 A 
HETATM  113  N   UNL     1       3.587   0.174  15.151  1.00  0.00    -0.255 NA
HETATM  114  C   UNL     1       2.808   0.442  14.129  1.00  0.00     0.209 A 
ENDBRANCH  87 110
ENDBRANCH  86  87
ENDBRANCH  80  86
ENDBRANCH  79  80
ENDBRANCH  77  79
ENDBRANCH   4  77
BRANCH   5 115
HETATM  115  O   UNL     1       2.330   6.081   6.113  1.00  0.00    -0.348 OA
BRANCH 115 116
HETATM  116  C   UNL     1       1.541   5.176   5.254  1.00  0.00     0.186 C 
HETATM  117  C   UNL     1       0.016   5.456   5.328  1.00  0.00     0.179 C 
HETATM  118  O   UNL     1      -0.486   6.129   4.159  1.00  0.00    -0.349 OA
HETATM  119  C   UNL     1      -0.337   5.436   2.916  1.00  0.00     0.296 C 
HETATM  120  C   UNL     1       1.070   4.759   2.763  1.00  0.00     0.303 C 
HETATM  121  C   UNL     1       2.079   5.289   3.810  1.00  0.00     0.187 C 
BRANCH 117 122
HETATM  122  C   UNL     1      -0.804   4.168   5.564  1.00  0.00     0.198 C 
BRANCH 122 123
HETATM  123  O   UNL     1       0.028   3.011   5.544  1.00  0.00    -0.398 OA
HETATM  124  H   UNL     1       0.510   2.997   4.694  1.00  0.00     0.209 HD
ENDBRANCH 122 123
ENDBRANCH 117 122
BRANCH 119 125
HETATM  125  O   UNL     1      -0.551   6.387   1.861  1.00  0.00    -0.348 OA
BRANCH 125 126
HETATM  126  C   UNL     1      -1.866   6.396   1.268  1.00  0.00     0.186 C 
HETATM  127  C   UNL     1      -2.836   7.303   2.067  1.00  0.00     0.176 C 
HETATM  128  O   UNL     1      -3.707   8.088   1.210  1.00  0.00    -0.379 OA
HETATM  129  C   UNL     1      -4.236   7.354   0.103  1.00  0.00     0.206 C 
HETATM  130  C   UNL     1      -3.122   6.951  -0.885  1.00  0.00     0.272 C 
HETATM  131  C   UNL     1      -1.743   6.940  -0.177  1.00  0.00     0.184 C 
BRANCH 127 132
HETATM  132  C   UNL     1      -3.713   6.529   3.064  1.00  0.00     0.198 C 
BRANCH 132 133
HETATM  133  O   UNL     1      -3.267   6.780   4.397  1.00  0.00    -0.398 OA
HETATM  134  H   UNL     1      -3.390   7.738   4.554  1.00  0.00     0.209 HD
ENDBRANCH 132 133
ENDBRANCH 127 132
BRANCH 130 135
HETATM  135  N   UNL     1      -3.073   7.811  -2.086  1.00  0.00     0.087 N 
HETATM  136  H   UNL     1      -2.156   7.677  -2.528  1.00  0.00     0.313 HD
HETATM  137  H   UNL     1      -3.105   8.799  -1.837  1.00  0.00     0.313 HD
ENDBRANCH 130 135
BRANCH 131 138
HETATM  138  O   UNL     1      -1.197   8.278  -0.185  1.00  0.00    -0.391 OA
HETATM  139  H   UNL     1      -0.899   8.467   0.725  1.00  0.00     0.210 HD
ENDBRANCH 131 138
ENDBRANCH 125 126
ENDBRANCH 119 125
BRANCH 120 140
HETATM  140  N   UNL     1       1.601   4.844   1.381  1.00  0.00     0.090 N 
HETATM  141  H   UNL     1       2.621   4.886   1.422  1.00  0.00     0.313 HD
HETATM  142  H   UNL     1       1.356   5.792   1.058  1.00  0.00     0.313 HD
ENDBRANCH 120 140
BRANCH 121 143
HETATM  143  O   UNL     1       2.487   6.624   3.500  1.00  0.00    -0.391 OA
HETATM  144  H   UNL     1       1.936   6.913   2.744  1.00  0.00     0.210 HD
ENDBRANCH 121 143
ENDBRANCH 115 116
ENDBRANCH   5 115
TORSDOF 58
ENDMDL
MODEL 4
REMARK VINA RESULT:      -8.1      2.995     15.603
REMARK WARNING: 32 MAX_TORS EXCEEDED!!!
REMARK  58 active torsions:
REMARK  status: ('A' for Active; 'I' for Inactive)
REMARK    1  A    between atoms: C_1  and  O_30 
REMARK    2  A    between atoms: C_2  and  C_6 
REMARK    3  A    between atoms: C_3  and  O_9 
REMARK    4  A    between atoms: C_4  and  N_11 
REMARK    5  A    between atoms: C_5  and  O_12 
REMARK    6  A    between atoms: C_6  and  O_7 
REMARK    7  A    between atoms: N_11  and  C_118 
REMARK    8  A    between atoms: O_12  and  C_20 
REMARK    9  A    between atoms: O_14  and  C_18 
REMARK   10  A    between atoms: C_16  and  C_23 
REMARK   11  A    between atoms: O_17  and  C_23 
REMARK   12  A    between atoms: O_19  and  C_22 
REMARK   13  A    between atoms: O_19  and  C_42 
REMARK   14  A    between atoms: N_21  and  C_24 
REMARK   15  A    between atoms: O_26  and  C_29 
REMARK   16  A    between atoms: C_28  and  C_34 
REMARK   17  A    between atoms: O_30  and  C_33 
REMARK   18  A    between atoms: C_31  and  O_53 
REMARK   19  A    between atoms: N_32  and  C_35 
REMARK   20  A    between atoms: C_34  and  O_65 
REMARK   21  A    between atoms: O_37  and  C_41 
REMARK   22  A    between atoms: C_39  and  C_45 
REMARK   23  A    between atoms: O_40  and  C_45 
REMARK   24  A    between atoms: N_43  and  C_46 
REMARK   25  A    between atoms: O_48  and  C_52 
REMARK   26  A    between atoms: C_50  and  C_57 
REMARK   27  A    between atoms: O_51  and  C_57 
REMARK   28  A    between atoms: O_53  and  C_56 
REMARK   29  A    between atoms: N_55  and  C_58 
REMARK   30  A    between atoms: N_55  and  C_71 
REMARK   31  A    between atoms: C_71  and  C_73 
REMARK   32  A    between atoms: C_73  and  C_74 
REMARK   33  A    between atoms: C_73  and  N_87 
REMARK   34  A    between atoms: C_74  and  C_75 
REMARK   35  A    between atoms: C_75  and  C_76 
REMARK   36  A    between atoms: C_75  and  N_101 
REMARK   37  A    between atoms: C_76  and  C_77 
REMARK   38  A    between atoms: C_77  and  C_78 
REMARK   39  A    between atoms: C_77  and  N_91 
REMARK   40  A    between atoms: C_78  and  C_79 
REMARK   41  A    between atoms: C_79  and  C_80 
REMARK   42  A    between atoms: C_79  and  N_106 
REMARK   43  A    between atoms: C_80  and  C_81 
REMARK   44  A    between atoms: C_81  and  N_96 
REMARK   45  A    between atoms: N_113  and  C_119 
REMARK   46  A    between atoms: C_118  and  C_119 
REMARK   47  A    between atoms: C_119  and  C_126 
REMARK   48  A    between atoms: N_122  and  C_128 
REMARK   49  A    between atoms: C_124  and  C_128 
REMARK   50  A    between atoms: C_124  and  C_130 
REMARK   51  A    between atoms: N_125  and  C_135 
REMARK   52  A    between atoms: C_126  and  C_130 
REMARK   53  A    between atoms: C_128  and  C_132 
REMARK   54  A    between atoms: N_129  and  C_130 
REMARK   55  A    between atoms: C_132  and  C_137 
REMARK   56  A    between atoms: C_135  and  C_136 
REMARK   57  A    between atoms: C_136  and  C_137 
REMARK   58  A    between atoms: C_137  and  N_140 
ROOT
HETATM    1  C   UNL     1      -0.175   0.274  15.010  1.00  0.00     0.186 C 
HETATM    2  C   UNL     1       1.177  -0.510  14.793  1.00  0.00     0.179 C 
HETATM    3  C   UNL     1      -1.462  -0.613  14.988  1.00  0.00     0.188 C 
HETATM    4  C   UNL     1      -1.233  -2.094  15.439  1.00  0.00     0.306 C 
HETATM    5  C   UNL     1      -0.101  -2.495  14.422  1.00  0.00     0.296 C 
HETATM    6  O   UNL     1       1.120  -1.962  14.898  1.00  0.00    -0.349 OA
ENDROOT
BRANCH   1   7
HETATM    7  O   UNL     1      -0.097   1.052  16.221  1.00  0.00    -0.348 OA
BRANCH   7   8
HETATM    8  C   UNL     1      -0.286   2.474  16.043  1.00  0.00     0.296 C 
HETATM    9  O   UNL     1      -0.543   2.696  14.649  1.00  0.00    -0.349 OA
HETATM   10  C   UNL     1      -0.630   4.076  14.227  1.00  0.00     0.179 C 
HETATM   11  C   UNL     1       0.539   4.939  14.751  1.00  0.00     0.186 C 
HETATM   12  C   UNL     1       1.615   4.052  15.388  1.00  0.00     0.187 C 
HETATM   13  C   UNL     1       0.988   3.247  16.533  1.00  0.00     0.303 C 
BRANCH  10  14
HETATM   14  C   UNL     1      -1.996   4.682  14.602  1.00  0.00     0.198 C 
BRANCH  14  15
HETATM   15  O   UNL     1      -2.434   5.639  13.639  1.00  0.00    -0.398 OA
HETATM   16  H   UNL     1      -3.119   6.190  14.061  1.00  0.00     0.209 HD
ENDBRANCH  14  15
ENDBRANCH  10  14
BRANCH  11  17
HETATM   17  O   UNL     1       1.183   5.682  13.713  1.00  0.00    -0.348 OA
BRANCH  17  18
HETATM   18  C   UNL     1       1.013   7.091  13.776  1.00  0.00     0.296 C 
HETATM   19  O   UNL     1       0.067   7.398  14.796  1.00  0.00    -0.351 OA
HETATM   20  C   UNL     1      -0.821   8.500  14.545  1.00  0.00     0.150 C 
HETATM   21  C   UNL     1      -0.113   9.628  13.798  1.00  0.00     0.068 C 
HETATM   22  C   UNL     1       0.516   9.152  12.483  1.00  0.00     0.158 C 
HETATM   23  C   UNL     1       0.652   7.611  12.356  1.00  0.00     0.303 C 
BRANCH  20  24
HETATM   24  C   UNL     1      -1.383   8.988  15.890  1.00  0.00     0.196 C 
BRANCH  24  25
HETATM   25  O   UNL     1      -2.541   8.229  16.234  1.00  0.00    -0.398 OA
HETATM   26  H   UNL     1      -2.353   7.772  17.071  1.00  0.00     0.209 HD
ENDBRANCH  24  25
ENDBRANCH  20  24
BRANCH  22  27
HETATM   27  O   UNL     1      -0.234   9.675  11.382  1.00  0.00    -0.393 OA
HETATM   28  H   UNL     1      -0.050   9.067  10.636  1.00  0.00     0.210 HD
ENDBRANCH  22  27
BRANCH  23  29
HETATM   29  N   UNL     1      -0.595   7.076  11.739  1.00  0.00     0.097 N 
HETATM   30  H   UNL     1      -1.108   6.605  12.493  1.00  0.00     0.316 HD
BRANCH  29  31
HETATM   31  C   UNL     1      -0.443   6.040  10.703  1.00  0.00     0.296 C 
BRANCH  31  32
HETATM   32  C   UNL     1       0.935   6.001   9.912  1.00  0.00     0.120 C 
BRANCH  32  33
HETATM   33  C   UNL     1       0.655   5.876   8.368  1.00  0.00     0.053 C 
BRANCH  33  34
HETATM   34  C   UNL     1       1.293   6.901   7.327  1.00  0.00     0.094 C 
BRANCH  34  35
HETATM   35  C   UNL     1       1.675   6.168   5.979  1.00  0.00     0.051 C 
BRANCH  35  36
HETATM   36  C   UNL     1       0.627   5.873   4.835  1.00  0.00     0.094 C 
BRANCH  36  37
HETATM   37  C   UNL     1       1.230   4.992   3.683  1.00  0.00     0.051 C 
BRANCH  37  38
HETATM   38  C   UNL     1       1.098   5.475   2.190  1.00  0.00     0.094 C 
BRANCH  38  39
HETATM   39  C   UNL     1      -0.272   6.203   1.933  1.00  0.00     0.051 C 
BRANCH  39  40
HETATM   40  C   UNL     1      -1.456   5.535   1.182  1.00  0.00     0.089 C 
HETATM   41  C   UNL     1      -2.064   4.436   2.076  1.00  0.00     0.033 C 
BRANCH  40  42
HETATM   42  N   UNL     1      -2.527   6.428   0.762  1.00  0.00    -0.334 N 
HETATM   43  C   UNL     1      -2.698   6.915  -0.508  1.00  0.00     0.210 A 
HETATM   44  N   UNL     1      -3.787   7.643  -0.604  1.00  0.00    -0.254 NA
HETATM   45  C   UNL     1      -4.341   7.624   0.649  1.00  0.00     0.150 A 
HETATM   46  C   UNL     1      -3.576   6.875   1.516  1.00  0.00     0.082 A 
ENDBRANCH  40  42
ENDBRANCH  39  40
ENDBRANCH  38  39
BRANCH  38  47
HETATM   47  N   UNL     1       2.283   5.956   1.504  1.00  0.00    -0.345 N 
HETATM   48  C   UNL     1       2.463   6.281   0.192  1.00  0.00     0.209 A 
HETATM   49  N   UNL     1       3.712   6.604  -0.065  1.00  0.00    -0.255 NA
HETATM   50  C   UNL     1       4.363   6.551   1.131  1.00  0.00     0.135 A 
HETATM   51  C   UNL     1       3.500   6.150   2.122  1.00  0.00     0.111 A 
ENDBRANCH  38  47
ENDBRANCH  37  38
ENDBRANCH  36  37
BRANCH  36  52
HETATM   52  N   UNL     1      -0.576   5.198   5.349  1.00  0.00    -0.345 N 
HETATM   53  C   UNL     1      -0.685   3.867   5.648  1.00  0.00     0.209 A 
HETATM   54  N   UNL     1      -1.859   3.573   6.160  1.00  0.00    -0.255 NA
HETATM   55  C   UNL     1      -2.549   4.748   6.184  1.00  0.00     0.135 A 
HETATM   56  C   UNL     1      -1.754   5.779   5.742  1.00  0.00     0.111 A 
ENDBRANCH  36  52
ENDBRANCH  35  36
ENDBRANCH  34  35
BRANCH  34  57
HETATM   57  N   UNL     1       0.667   8.222   7.316  1.00  0.00    -0.345 N 
HETATM   58  C   UNL     1       1.311   9.411   7.074  1.00  0.00     0.209 A 
HETATM   59  N   UNL     1       0.569  10.455   7.360  1.00  0.00    -0.255 NA
HETATM   60  C   UNL     1      -0.589   9.942   7.858  1.00  0.00     0.135 A 
HETATM   61  C   UNL     1      -0.528   8.571   7.897  1.00  0.00     0.111 A 
ENDBRANCH  34  57
ENDBRANCH  33  34
ENDBRANCH  32  33
BRANCH  32  62
HETATM   62  N   UNL     1       1.971   5.109  10.448  1.00  0.00    -0.344 N 
HETATM   63  C   UNL     1       3.336   5.171  10.352  1.00  0.00     0.111 A 
HETATM   64  C   UNL     1       3.828   4.082  11.028  1.00  0.00     0.135 A 
HETATM   65  N   UNL     1       2.808   3.321  11.502  1.00  0.00    -0.255 NA
HETATM   66  C   UNL     1       1.715   3.944  11.130  1.00  0.00     0.209 A 
ENDBRANCH  32  62
ENDBRANCH  31  32
ENDBRANCH  29  31
ENDBRANCH  23  29
ENDBRANCH  17  18
ENDBRANCH  11  17
BRANCH  12  67
HETATM   67  O   UNL     1       2.224   3.173  14.425  1.00  0.00    -0.391 OA
HETATM   68  H   UNL     1       1.798   2.299  14.517  1.00  0.00     0.210 HD
ENDBRANCH  12  67
BRANCH  13  69
HETATM   69  N   UNL     1       2.038   2.416  17.159  1.00  0.00     0.090 N 
HETATM   70  H   UNL     1       1.986   1.497  16.707  1.00  0.00     0.313 HD
HETATM   71  H   UNL     1       1.706   2.233  18.114  1.00  0.00     0.313 HD
ENDBRANCH  13  69
ENDBRANCH   7   8
ENDBRANCH   1   7
BRANCH   2  72
HETATM   72  C   UNL     1       1.786  -0.109  13.422  1.00  0.00     0.198 C 
BRANCH  72  73
HETATM   73  O   UNL     1       1.018   0.908  12.791  1.00  0.00    -0.398 OA
HETATM   74  H   UNL     1       0.090   0.799  13.063  1.00  0.00     0.209 HD
ENDBRANCH  72  73
ENDBRANCH   2  72
BRANCH   3  75
HETATM   75  O   UNL     1      -2.582   0.009  15.615  1.00  0.00    -0.391 OA
HETATM   76  H   UNL     1      -2.499   0.971  15.481  1.00  0.00     0.210 HD
ENDBRANCH   3  75
BRANCH   4  77
HETATM   77  N   UNL     1      -1.223  -2.134  16.959  1.00  0.00     0.097 N 
HETATM   78  H   UNL     1      -2.193  -2.185  17.268  1.00  0.00     0.316 HD
BRANCH  77  79
HETATM   79  C   UNL     1      -0.451  -3.168  17.690  1.00  0.00     0.296 C 
BRANCH  79  80
HETATM   80  C   UNL     1       0.898  -2.706  18.537  1.00  0.00     0.120 C 
BRANCH  80  81
HETATM   81  N   UNL     1       2.064  -3.570  18.339  1.00  0.00    -0.344 N 
HETATM   82  C   UNL     1       2.463  -4.670  19.053  1.00  0.00     0.111 A 
HETATM   83  C   UNL     1       3.679  -5.043  18.523  1.00  0.00     0.135 A 
HETATM   84  N   UNL     1       4.044  -4.194  17.516  1.00  0.00    -0.255 NA
HETATM   85  C   UNL     1       3.083  -3.318  17.452  1.00  0.00     0.209 A 
ENDBRANCH  80  81
BRANCH  80  86
HETATM   86  C   UNL     1       1.169  -1.139  18.486  1.00  0.00     0.053 C 
BRANCH  86  87
HETATM   87  C   UNL     1       0.787  -0.017  19.597  1.00  0.00     0.094 C 
BRANCH  87  88
HETATM   88  C   UNL     1      -0.613  -0.188  20.346  1.00  0.00     0.051 C 
BRANCH  88  89
HETATM   89  C   UNL     1      -1.993   0.199  19.601  1.00  0.00     0.094 C 
BRANCH  89  90
HETATM   90  N   UNL     1      -2.173   1.651  19.399  1.00  0.00    -0.345 N 
HETATM   91  C   UNL     1      -2.943   2.289  18.464  1.00  0.00     0.111 A 
HETATM   92  C   UNL     1      -2.641   3.627  18.574  1.00  0.00     0.135 A 
HETATM   93  N   UNL     1      -1.688   3.824  19.524  1.00  0.00    -0.255 NA
HETATM   94  C   UNL     1      -1.458   2.636  20.031  1.00  0.00     0.209 A 
ENDBRANCH  89  90
BRANCH  89  95
HETATM   95  C   UNL     1      -3.286  -0.352  20.331  1.00  0.00     0.051 C 
BRANCH  95  96
HETATM   96  C   UNL     1      -4.457  -1.037  19.498  1.00  0.00     0.094 C 
BRANCH  96  97
HETATM   97  C   UNL     1      -4.952  -2.379  20.170  1.00  0.00     0.051 C 
BRANCH  97  98
HETATM   98  C   UNL     1      -5.604  -3.553  19.375  1.00  0.00     0.089 C 
HETATM   99  C   UNL     1      -6.958  -3.089  18.801  1.00  0.00     0.033 C 
BRANCH  98 100
HETATM  100  N   UNL     1      -4.807  -4.088  18.276  1.00  0.00    -0.334 N 
HETATM  101  C   UNL     1      -3.917  -5.125  18.331  1.00  0.00     0.082 A 
HETATM  102  C   UNL     1      -3.357  -5.178  17.074  1.00  0.00     0.150 A 
HETATM  103  N   UNL     1      -3.874  -4.199  16.265  1.00  0.00    -0.254 NA
HETATM  104  C   UNL     1      -4.750  -3.566  17.010  1.00  0.00     0.210 A 
ENDBRANCH  98 100
ENDBRANCH  97  98
ENDBRANCH  96  97
BRANCH  96 105
HETATM  105  N   UNL     1      -5.435  -0.212  18.811  1.00  0.00    -0.345 N 
HETATM  106  C   UNL     1      -6.476   0.514  19.312  1.00  0.00     0.209 A 
HETATM  107  N   UNL     1      -7.216   1.037  18.358  1.00  0.00    -0.255 NA
HETATM  108  C   UNL     1      -6.612   0.686  17.189  1.00  0.00     0.135 A 
HETATM  109  C   UNL     1      -5.506  -0.089  17.439  1.00  0.00     0.111 A 
ENDBRANCH  96 105
ENDBRANCH  95  96
ENDBRANCH  89  95
ENDBRANCH  88  89
ENDBRANCH  87  88
BRANCH  87 110
HETATM  110  N   UNL     1       1.930   0.508  20.359  1.00  0.00    -0.345 N 
HETATM  111  C   UNL     1       3.223   0.055  20.347  1.00  0.00     0.111 A 
HETATM  112  C   UNL     1       3.968   0.986  21.029  1.00  0.00     0.135 A 
HETATM  113  N   UNL     1       3.196   2.052  21.378  1.00  0.00    -0.255 NA
HETATM  114  C   UNL     1       1.995   1.757  20.938  1.00  0.00     0.209 A 
ENDBRANCH  87 110
ENDBRANCH  86  87
ENDBRANCH  80  86
ENDBRANCH  79  80
ENDBRANCH  77  79
ENDBRANCH   4  77
BRANCH   5 115
HETATM  115  O   UNL     1      -0.084  -3.890  14.060  1.00  0.00    -0.348 OA
BRANCH 115 116
HETATM  116  C   UNL     1      -1.411  -4.420  13.687  1.00  0.00     0.186 C 
HETATM  117  C   UNL     1      -1.832  -4.022  12.246  1.00  0.00     0.179 C 
HETATM  118  O   UNL     1      -1.730  -5.113  11.312  1.00  0.00    -0.349 OA
HETATM  119  C   UNL     1      -2.539  -6.260  11.589  1.00  0.00     0.296 C 
HETATM  120  C   UNL     1      -2.532  -6.657  13.106  1.00  0.00     0.303 C 
HETATM  121  C   UNL     1      -1.391  -5.952  13.880  1.00  0.00     0.187 C 
BRANCH 117 122
HETATM  122  C   UNL     1      -3.263  -3.441  12.195  1.00  0.00     0.198 C 
BRANCH 122 123
HETATM  123  O   UNL     1      -3.832  -3.347  13.497  1.00  0.00    -0.398 OA
HETATM  124  H   UNL     1      -3.298  -2.715  14.018  1.00  0.00     0.209 HD
ENDBRANCH 122 123
ENDBRANCH 117 122
BRANCH 119 125
HETATM  125  O   UNL     1      -2.042  -7.344  10.787  1.00  0.00    -0.348 OA
BRANCH 125 126
HETATM  126  C   UNL     1      -0.691  -7.210  10.301  1.00  0.00     0.186 C 
HETATM  127  C   UNL     1      -0.068  -8.593   9.982  1.00  0.00     0.176 C 
HETATM  128  O   UNL     1       0.721  -8.588   8.763  1.00  0.00    -0.379 OA
HETATM  129  C   UNL     1       1.550  -7.432   8.621  1.00  0.00     0.206 C 
HETATM  130  C   UNL     1       0.705  -6.155   8.440  1.00  0.00     0.272 C 
HETATM  131  C   UNL     1      -0.724  -6.363   9.004  1.00  0.00     0.184 C 
BRANCH 127 132
HETATM  132  C   UNL     1       0.807  -9.144  11.119  1.00  0.00     0.198 C 
BRANCH 132 133
HETATM  133  O   UNL     1       1.345  -8.064  11.883  1.00  0.00    -0.398 OA
HETATM  134  H   UNL     1       2.238  -7.891  11.525  1.00  0.00     0.209 HD
ENDBRANCH 132 133
ENDBRANCH 127 132
BRANCH 130 135
HETATM  135  N   UNL     1       0.639  -5.698   7.036  1.00  0.00     0.087 N 
HETATM  136  H   UNL     1      -0.244  -6.041   6.638  1.00  0.00     0.313 HD
HETATM  137  H   UNL     1       1.370  -6.128   6.471  1.00  0.00     0.313 HD
ENDBRANCH 130 135
BRANCH 131 138
HETATM  138  O   UNL     1      -1.544  -6.989   7.993  1.00  0.00    -0.391 OA
HETATM  139  H   UNL     1      -0.945  -7.259   7.271  1.00  0.00     0.210 HD
ENDBRANCH 131 138
ENDBRANCH 125 126
ENDBRANCH 119 125
BRANCH 120 140
HETATM  140  N   UNL     1      -2.526  -8.125  13.317  1.00  0.00     0.090 N 
HETATM  141  H   UNL     1      -3.445  -8.497  13.071  1.00  0.00     0.313 HD
HETATM  142  H   UNL     1      -2.507  -8.248  14.340  1.00  0.00     0.313 HD
ENDBRANCH 120 140
BRANCH 121 143
HETATM  143  O   UNL     1      -0.120  -6.513  13.541  1.00  0.00    -0.391 OA
HETATM  144  H   UNL     1      -0.298  -7.406  13.183  1.00  0.00     0.210 HD
ENDBRANCH 121 143
ENDBRANCH 115 116
ENDBRANCH   5 115
TORSDOF 58
ENDMDL
MODEL 5
REMARK VINA RESULT:      -7.9      3.509     16.488
REMARK WARNING: 32 MAX_TORS EXCEEDED!!!
REMARK  58 active torsions:
REMARK  status: ('A' for Active; 'I' for Inactive)
REMARK    1  A    between atoms: C_1  and  O_30 
REMARK    2  A    between atoms: C_2  and  C_6 
REMARK    3  A    between atoms: C_3  and  O_9 
REMARK    4  A    between atoms: C_4  and  N_11 
REMARK    5  A    between atoms: C_5  and  O_12 
REMARK    6  A    between atoms: C_6  and  O_7 
REMARK    7  A    between atoms: N_11  and  C_118 
REMARK    8  A    between atoms: O_12  and  C_20 
REMARK    9  A    between atoms: O_14  and  C_18 
REMARK   10  A    between atoms: C_16  and  C_23 
REMARK   11  A    between atoms: O_17  and  C_23 
REMARK   12  A    between atoms: O_19  and  C_22 
REMARK   13  A    between atoms: O_19  and  C_42 
REMARK   14  A    between atoms: N_21  and  C_24 
REMARK   15  A    between atoms: O_26  and  C_29 
REMARK   16  A    between atoms: C_28  and  C_34 
REMARK   17  A    between atoms: O_30  and  C_33 
REMARK   18  A    between atoms: C_31  and  O_53 
REMARK   19  A    between atoms: N_32  and  C_35 
REMARK   20  A    between atoms: C_34  and  O_65 
REMARK   21  A    between atoms: O_37  and  C_41 
REMARK   22  A    between atoms: C_39  and  C_45 
REMARK   23  A    between atoms: O_40  and  C_45 
REMARK   24  A    between atoms: N_43  and  C_46 
REMARK   25  A    between atoms: O_48  and  C_52 
REMARK   26  A    between atoms: C_50  and  C_57 
REMARK   27  A    between atoms: O_51  and  C_57 
REMARK   28  A    between atoms: O_53  and  C_56 
REMARK   29  A    between atoms: N_55  and  C_58 
REMARK   30  A    between atoms: N_55  and  C_71 
REMARK   31  A    between atoms: C_71  and  C_73 
REMARK   32  A    between atoms: C_73  and  C_74 
REMARK   33  A    between atoms: C_73  and  N_87 
REMARK   34  A    between atoms: C_74  and  C_75 
REMARK   35  A    between atoms: C_75  and  C_76 
REMARK   36  A    between atoms: C_75  and  N_101 
REMARK   37  A    between atoms: C_76  and  C_77 
REMARK   38  A    between atoms: C_77  and  C_78 
REMARK   39  A    between atoms: C_77  and  N_91 
REMARK   40  A    between atoms: C_78  and  C_79 
REMARK   41  A    between atoms: C_79  and  C_80 
REMARK   42  A    between atoms: C_79  and  N_106 
REMARK   43  A    between atoms: C_80  and  C_81 
REMARK   44  A    between atoms: C_81  and  N_96 
REMARK   45  A    between atoms: N_113  and  C_119 
REMARK   46  A    between atoms: C_118  and  C_119 
REMARK   47  A    between atoms: C_119  and  C_126 
REMARK   48  A    between atoms: N_122  and  C_128 
REMARK   49  A    between atoms: C_124  and  C_128 
REMARK   50  A    between atoms: C_124  and  C_130 
REMARK   51  A    between atoms: N_125  and  C_135 
REMARK   52  A    between atoms: C_126  and  C_130 
REMARK   53  A    between atoms: C_128  and  C_132 
REMARK   54  A    between atoms: N_129  and  C_130 
REMARK   55  A    between atoms: C_132  and  C_137 
REMARK   56  A    between atoms: C_135  and  C_136 
REMARK   57  A    between atoms: C_136  and  C_137 
REMARK   58  A    between atoms: C_137  and  N_140 
ROOT
HETATM    1  C   UNL     1       0.438   7.585  11.043  1.00  0.00     0.186 C 
HETATM    2  C   UNL     1       1.341   8.260   9.938  1.00  0.00     0.179 C 
HETATM    3  C   UNL     1       0.044   6.101  10.756  1.00  0.00     0.188 C 
HETATM    4  C   UNL     1       1.075   5.317   9.876  1.00  0.00     0.306 C 
HETATM    5  C   UNL     1       1.120   6.274   8.628  1.00  0.00     0.296 C 
HETATM    6  O   UNL     1       1.946   7.375   8.952  1.00  0.00    -0.349 OA
ENDROOT
BRANCH   1   7
HETATM    7  O   UNL     1       1.069   7.718  12.333  1.00  0.00    -0.348 OA
BRANCH   7   8
HETATM    8  C   UNL     1       0.358   8.555  13.273  1.00  0.00     0.296 C 
HETATM    9  O   UNL     1      -0.609   9.305  12.525  1.00  0.00    -0.349 OA
HETATM   10  C   UNL     1      -1.344  10.311  13.259  1.00  0.00     0.179 C 
HETATM   11  C   UNL     1      -0.431  11.219  14.111  1.00  0.00     0.186 C 
HETATM   12  C   UNL     1       1.042  10.967  13.771  1.00  0.00     0.187 C 
HETATM   13  C   UNL     1       1.369   9.491  14.025  1.00  0.00     0.303 C 
BRANCH  10  14
HETATM   14  C   UNL     1      -2.459   9.669  14.108  1.00  0.00     0.198 C 
BRANCH  14  15
HETATM   15  O   UNL     1      -2.199   9.793  15.505  1.00  0.00    -0.398 OA
HETATM   16  H   UNL     1      -2.664   9.065  15.958  1.00  0.00     0.209 HD
ENDBRANCH  14  15
ENDBRANCH  10  14
BRANCH  11  17
HETATM   17  O   UNL     1      -0.671  12.611  13.882  1.00  0.00    -0.348 OA
BRANCH  17  18
HETATM   18  C   UNL     1      -1.745  12.907  13.000  1.00  0.00     0.296 C 
HETATM   19  O   UNL     1      -1.332  12.645  11.662  1.00  0.00    -0.351 OA
HETATM   20  C   UNL     1      -1.824  13.534  10.647  1.00  0.00     0.150 C 
HETATM   21  C   UNL     1      -3.261  13.964  10.929  1.00  0.00     0.068 C 
HETATM   22  C   UNL     1      -3.415  14.611  12.311  1.00  0.00     0.158 C 
HETATM   23  C   UNL     1      -2.225  14.362  13.275  1.00  0.00     0.303 C 
BRANCH  20  24
HETATM   24  C   UNL     1      -1.710  12.828   9.285  1.00  0.00     0.196 C 
BRANCH  24  25
HETATM   25  O   UNL     1      -0.345  12.798   8.869  1.00  0.00    -0.398 OA
HETATM   26  H   UNL     1      -0.142  13.662   8.472  1.00  0.00     0.209 HD
ENDBRANCH  24  25
ENDBRANCH  20  24
BRANCH  22  27
HETATM   27  O   UNL     1      -3.639  16.016  12.155  1.00  0.00    -0.393 OA
HETATM   28  H   UNL     1      -4.604  16.136  12.276  1.00  0.00     0.210 HD
ENDBRANCH  22  27
BRANCH  23  29
HETATM   29  N   UNL     1      -1.224  15.449  13.081  1.00  0.00     0.097 N 
HETATM   30  H   UNL     1      -0.369  14.994  12.741  1.00  0.00     0.316 HD
BRANCH  29  31
HETATM   31  C   UNL     1      -0.789  16.186  14.280  1.00  0.00     0.296 C 
BRANCH  31  32
HETATM   32  C   UNL     1       0.661  15.859  14.846  1.00  0.00     0.120 C 
BRANCH  32  33
HETATM   33  C   UNL     1       1.453  14.988  13.800  1.00  0.00     0.053 C 
BRANCH  33  34
HETATM   34  C   UNL     1       3.039  15.078  13.683  1.00  0.00     0.094 C 
BRANCH  34  35
HETATM   35  C   UNL     1       3.546  16.537  14.018  1.00  0.00     0.051 C 
BRANCH  35  36
HETATM   36  C   UNL     1       4.080  16.954  15.445  1.00  0.00     0.094 C 
BRANCH  36  37
HETATM   37  C   UNL     1       5.637  16.792  15.572  1.00  0.00     0.051 C 
BRANCH  37  38
HETATM   38  C   UNL     1       6.512  16.662  14.269  1.00  0.00     0.094 C 
BRANCH  38  39
HETATM   39  C   UNL     1       7.435  17.918  14.060  1.00  0.00     0.051 C 
BRANCH  39  40
HETATM   40  C   UNL     1       7.038  19.118  13.157  1.00  0.00     0.089 C 
HETATM   41  C   UNL     1       5.837  18.713  12.280  1.00  0.00     0.033 C 
BRANCH  40  42
HETATM   42  N   UNL     1       6.701  20.352  13.854  1.00  0.00    -0.334 N 
HETATM   43  C   UNL     1       5.784  21.277  13.425  1.00  0.00     0.210 A 
HETATM   44  N   UNL     1       5.642  22.254  14.291  1.00  0.00    -0.254 NA
HETATM   45  C   UNL     1       6.498  21.949  15.317  1.00  0.00     0.150 A 
HETATM   46  C   UNL     1       7.168  20.772  15.068  1.00  0.00     0.082 A 
ENDBRANCH  40  42
ENDBRANCH  39  40
ENDBRANCH  38  39
BRANCH  38  47
HETATM   47  N   UNL     1       7.018  15.354  13.895  1.00  0.00    -0.345 N 
HETATM   48  C   UNL     1       7.449  14.326  14.680  1.00  0.00     0.209 A 
HETATM   49  N   UNL     1       7.911  13.324  13.964  1.00  0.00    -0.255 NA
HETATM   50  C   UNL     1       7.720  13.680  12.661  1.00  0.00     0.135 A 
HETATM   51  C   UNL     1       7.168  14.936  12.590  1.00  0.00     0.111 A 
ENDBRANCH  38  47
ENDBRANCH  37  38
ENDBRANCH  36  37
BRANCH  36  52
HETATM   52  N   UNL     1       3.734  18.345  15.780  1.00  0.00    -0.345 N 
HETATM   53  C   UNL     1       4.258  19.078  16.810  1.00  0.00     0.209 A 
HETATM   54  N   UNL     1       3.812  20.314  16.811  1.00  0.00    -0.255 NA
HETATM   55  C   UNL     1       2.955  20.390  15.754  1.00  0.00     0.135 A 
HETATM   56  C   UNL     1       2.937  19.200  15.065  1.00  0.00     0.111 A 
ENDBRANCH  36  52
ENDBRANCH  35  36
ENDBRANCH  34  35
BRANCH  34  57
HETATM   57  N   UNL     1       3.751  13.900  14.177  1.00  0.00    -0.345 N 
HETATM   58  C   UNL     1       4.226  12.869  13.404  1.00  0.00     0.209 A 
HETATM   59  N   UNL     1       4.607  11.836  14.119  1.00  0.00    -0.255 NA
HETATM   60  C   UNL     1       4.328  12.173  15.408  1.00  0.00     0.135 A 
HETATM   61  C   UNL     1       3.745  13.414  15.463  1.00  0.00     0.111 A 
ENDBRANCH  34  57
ENDBRANCH  33  34
ENDBRANCH  32  33
BRANCH  32  62
HETATM   62  N   UNL     1       0.731  15.405  16.240  1.00  0.00    -0.344 N 
HETATM   63  C   UNL     1       0.403  14.200  16.801  1.00  0.00     0.111 A 
HETATM   64  C   UNL     1       0.653  14.312  18.147  1.00  0.00     0.135 A 
HETATM   65  N   UNL     1       1.083  15.565  18.445  1.00  0.00    -0.255 NA
HETATM   66  C   UNL     1       1.105  16.201  17.297  1.00  0.00     0.209 A 
ENDBRANCH  32  62
ENDBRANCH  31  32
ENDBRANCH  29  31
ENDBRANCH  23  29
ENDBRANCH  17  18
ENDBRANCH  11  17
BRANCH  12  67
HETATM   67  O   UNL     1       1.348  11.328  12.412  1.00  0.00    -0.391 OA
HETATM   68  H   UNL     1       0.776  10.789  11.831  1.00  0.00     0.210 HD
ENDBRANCH  12  67
BRANCH  13  69
HETATM   69  N   UNL     1       2.797   9.263  13.721  1.00  0.00     0.090 N 
HETATM   70  H   UNL     1       2.848   8.366  13.227  1.00  0.00     0.313 HD
HETATM   71  H   UNL     1       3.239   9.062  14.627  1.00  0.00     0.313 HD
ENDBRANCH  13  69
ENDBRANCH   7   8
ENDBRANCH   1   7
BRANCH   2  72
HETATM   72  C   UNL     1       0.523   9.364   9.215  1.00  0.00     0.198 C 
BRANCH  72  73
HETATM   73  O   UNL     1       0.189  10.426  10.101  1.00  0.00    -0.398 OA
HETATM   74  H   UNL     1      -0.779  10.526  10.100  1.00  0.00     0.209 HD
ENDBRANCH  72  73
ENDBRANCH   2  72
BRANCH   3  75
HETATM   75  O   UNL     1      -0.365   5.393  11.924  1.00  0.00    -0.391 OA
HETATM   76  H   UNL     1       0.385   4.844  12.216  1.00  0.00     0.210 HD
ENDBRANCH   3  75
BRANCH   4  77
HETATM   77  N   UNL     1       2.209   4.849  10.774  1.00  0.00     0.097 N 
HETATM   78  H   UNL     1       2.234   5.469  11.582  1.00  0.00     0.316 HD
BRANCH  77  79
HETATM   79  C   UNL     1       2.265   3.450  11.265  1.00  0.00     0.296 C 
BRANCH  79  80
HETATM   80  C   UNL     1       2.262   3.179  12.901  1.00  0.00     0.120 C 
BRANCH  80  81
HETATM   81  N   UNL     1       2.410   4.386  13.718  1.00  0.00    -0.344 N 
HETATM   82  C   UNL     1       3.510   5.181  13.903  1.00  0.00     0.111 A 
HETATM   83  C   UNL     1       3.146   6.116  14.848  1.00  0.00     0.135 A 
HETATM   84  N   UNL     1       1.860   5.905  15.259  1.00  0.00    -0.255 NA
HETATM   85  C   UNL     1       1.463   4.859  14.593  1.00  0.00     0.209 A 
ENDBRANCH  80  81
BRANCH  80  86
HETATM   86  C   UNL     1       1.143   2.148  13.369  1.00  0.00     0.053 C 
BRANCH  86  87
HETATM   87  C   UNL     1       1.079   1.291  14.747  1.00  0.00     0.094 C 
BRANCH  87  88
HETATM   88  C   UNL     1      -0.363   1.085  15.403  1.00  0.00     0.051 C 
BRANCH  88  89
HETATM   89  C   UNL     1      -1.647   1.875  14.825  1.00  0.00     0.094 C 
BRANCH  89  90
HETATM   90  N   UNL     1      -2.063   3.024  15.655  1.00  0.00    -0.345 N 
HETATM   91  C   UNL     1      -1.674   3.335  16.931  1.00  0.00     0.111 A 
HETATM   92  C   UNL     1      -2.465   4.392  17.320  1.00  0.00     0.135 A 
HETATM   93  N   UNL     1      -3.346   4.716  16.336  1.00  0.00    -0.255 NA
HETATM   94  C   UNL     1      -3.056   3.915  15.338  1.00  0.00     0.209 A 
ENDBRANCH  89  90
BRANCH  89  95
HETATM   95  C   UNL     1      -2.915   0.953  14.605  1.00  0.00     0.051 C 
BRANCH  95  96
HETATM   96  C   UNL     1      -3.508   0.089  15.804  1.00  0.00     0.094 C 
BRANCH  96  97
HETATM   97  C   UNL     1      -2.647  -1.209  16.077  1.00  0.00     0.051 C 
BRANCH  97  98
HETATM   98  C   UNL     1      -3.183  -2.658  15.866  1.00  0.00     0.089 C 
HETATM   99  C   UNL     1      -4.717  -2.664  16.030  1.00  0.00     0.033 C 
BRANCH  98 100
HETATM  100  N   UNL     1      -2.865  -3.266  14.578  1.00  0.00    -0.334 N 
HETATM  101  C   UNL     1      -2.875  -4.599  14.269  1.00  0.00     0.082 A 
HETATM  102  C   UNL     1      -2.411  -4.666  12.975  1.00  0.00     0.150 A 
HETATM  103  N   UNL     1      -2.111  -3.417  12.496  1.00  0.00    -0.254 NA
HETATM  104  C   UNL     1      -2.403  -2.594  13.476  1.00  0.00     0.210 A 
ENDBRANCH  98 100
ENDBRANCH  97  98
ENDBRANCH  96  97
BRANCH  96 105
HETATM  105  N   UNL     1      -4.127   0.754  16.937  1.00  0.00    -0.345 N 
HETATM  106  C   UNL     1      -3.817   0.694  18.265  1.00  0.00     0.209 A 
HETATM  107  N   UNL     1      -4.688   1.347  19.004  1.00  0.00    -0.255 NA
HETATM  108  C   UNL     1      -5.575   1.898  18.128  1.00  0.00     0.135 A 
HETATM  109  C   UNL     1      -5.251   1.547  16.840  1.00  0.00     0.111 A 
ENDBRANCH  96 105
ENDBRANCH  95  96
ENDBRANCH  89  95
ENDBRANCH  88  89
ENDBRANCH  87  88
BRANCH  87 110
HETATM  110  N   UNL     1       2.051   0.191  14.833  1.00  0.00    -0.345 N 
HETATM  111  C   UNL     1       2.118  -0.793  15.784  1.00  0.00     0.111 A 
HETATM  112  C   UNL     1       3.033  -1.712  15.328  1.00  0.00     0.135 A 
HETATM  113  N   UNL     1       3.462  -1.379  14.080  1.00  0.00    -0.255 NA
HETATM  114  C   UNL     1       2.837  -0.260  13.795  1.00  0.00     0.209 A 
ENDBRANCH  87 110
ENDBRANCH  86  87
ENDBRANCH  80  86
ENDBRANCH  79  80
ENDBRANCH  77  79
ENDBRANCH   4  77
BRANCH   5 115
HETATM  115  O   UNL     1       1.402   5.617   7.376  1.00  0.00    -0.348 OA
BRANCH 115 116
HETATM  116  C   UNL     1       0.197   5.118   6.685  1.00  0.00     0.186 C 
HETATM  117  C   UNL     1      -0.899   6.206   6.529  1.00  0.00     0.179 C 
HETATM  118  O   UNL     1      -0.996   6.715   5.187  1.00  0.00    -0.349 OA
HETATM  119  C   UNL     1      -1.328   5.763   4.171  1.00  0.00     0.296 C 
HETATM  120  C   UNL     1      -0.557   4.407   4.335  1.00  0.00     0.303 C 
HETATM  121  C   UNL     1       0.629   4.534   5.321  1.00  0.00     0.187 C 
BRANCH 117 122
HETATM  122  C   UNL     1      -2.288   5.705   6.984  1.00  0.00     0.198 C 
BRANCH 122 123
HETATM  123  O   UNL     1      -3.189   6.790   7.193  1.00  0.00    -0.398 OA
HETATM  124  H   UNL     1      -2.860   7.316   7.949  1.00  0.00     0.209 HD
ENDBRANCH 122 123
ENDBRANCH 117 122
BRANCH 119 125
HETATM  125  O   UNL     1      -1.024   6.360   2.900  1.00  0.00    -0.348 OA
BRANCH 125 126
HETATM  126  C   UNL     1      -2.146   6.876   2.155  1.00  0.00     0.186 C 
HETATM  127  C   UNL     1      -1.760   7.154   0.679  1.00  0.00     0.176 C 
HETATM  128  O   UNL     1      -2.797   6.763  -0.258  1.00  0.00    -0.379 OA
HETATM  129  C   UNL     1      -4.116   7.114   0.166  1.00  0.00     0.206 C 
HETATM  130  C   UNL     1      -4.530   6.323   1.424  1.00  0.00     0.272 C 
HETATM  131  C   UNL     1      -3.278   5.819   2.187  1.00  0.00     0.184 C 
BRANCH 127 132
HETATM  132  C   UNL     1      -1.399   8.624   0.411  1.00  0.00     0.198 C 
BRANCH 132 133
HETATM  133  O   UNL     1      -1.246   8.837  -0.992  1.00  0.00    -0.398 OA
HETATM  134  H   UNL     1      -0.318   9.110  -1.131  1.00  0.00     0.209 HD
ENDBRANCH 132 133
ENDBRANCH 127 132
BRANCH 130 135
HETATM  135  N   UNL     1      -5.436   5.194   1.127  1.00  0.00     0.087 N 
HETATM  136  H   UNL     1      -5.934   4.957   1.994  1.00  0.00     0.313 HD
HETATM  137  H   UNL     1      -4.914   4.353   0.882  1.00  0.00     0.313 HD
ENDBRANCH 130 135
BRANCH 131 138
HETATM  138  O   UNL     1      -2.842   4.570   1.606  1.00  0.00    -0.391 OA
HETATM  139  H   UNL     1      -2.700   3.949   2.346  1.00  0.00     0.210 HD
ENDBRANCH 131 138
ENDBRANCH 125 126
ENDBRANCH 119 125
BRANCH 120 140
HETATM  140  N   UNL     1      -0.144   3.820   3.037  1.00  0.00     0.090 N 
HETATM  141  H   UNL     1      -0.624   4.316   2.283  1.00  0.00     0.313 HD
HETATM  142  H   UNL     1      -0.591   2.892   3.008  1.00  0.00     0.313 HD
ENDBRANCH 120 140
BRANCH 121 143
HETATM  143  O   UNL     1       1.700   5.282   4.741  1.00  0.00    -0.391 OA
HETATM  144  H   UNL     1       1.554   6.216   4.992  1.00  0.00     0.210 HD
ENDBRANCH 121 143
ENDBRANCH 115 116
ENDBRANCH   5 115
TORSDOF 58
ENDMDL
MODEL 6
REMARK VINA RESULT:      -7.9      4.035     14.958
REMARK WARNING: 32 MAX_TORS EXCEEDED!!!
REMARK  58 active torsions:
REMARK  status: ('A' for Active; 'I' for Inactive)
REMARK    1  A    between atoms: C_1  and  O_30 
REMARK    2  A    between atoms: C_2  and  C_6 
REMARK    3  A    between atoms: C_3  and  O_9 
REMARK    4  A    between atoms: C_4  and  N_11 
REMARK    5  A    between atoms: C_5  and  O_12 
REMARK    6  A    between atoms: C_6  and  O_7 
REMARK    7  A    between atoms: N_11  and  C_118 
REMARK    8  A    between atoms: O_12  and  C_20 
REMARK    9  A    between atoms: O_14  and  C_18 
REMARK   10  A    between atoms: C_16  and  C_23 
REMARK   11  A    between atoms: O_17  and  C_23 
REMARK   12  A    between atoms: O_19  and  C_22 
REMARK   13  A    between atoms: O_19  and  C_42 
REMARK   14  A    between atoms: N_21  and  C_24 
REMARK   15  A    between atoms: O_26  and  C_29 
REMARK   16  A    between atoms: C_28  and  C_34 
REMARK   17  A    between atoms: O_30  and  C_33 
REMARK   18  A    between atoms: C_31  and  O_53 
REMARK   19  A    between atoms: N_32  and  C_35 
REMARK   20  A    between atoms: C_34  and  O_65 
REMARK   21  A    between atoms: O_37  and  C_41 
REMARK   22  A    between atoms: C_39  and  C_45 
REMARK   23  A    between atoms: O_40  and  C_45 
REMARK   24  A    between atoms: N_43  and  C_46 
REMARK   25  A    between atoms: O_48  and  C_52 
REMARK   26  A    between atoms: C_50  and  C_57 
REMARK   27  A    between atoms: O_51  and  C_57 
REMARK   28  A    between atoms: O_53  and  C_56 
REMARK   29  A    between atoms: N_55  and  C_58 
REMARK   30  A    between atoms: N_55  and  C_71 
REMARK   31  A    between atoms: C_71  and  C_73 
REMARK   32  A    between atoms: C_73  and  C_74 
REMARK   33  A    between atoms: C_73  and  N_87 
REMARK   34  A    between atoms: C_74  and  C_75 
REMARK   35  A    between atoms: C_75  and  C_76 
REMARK   36  A    between atoms: C_75  and  N_101 
REMARK   37  A    between atoms: C_76  and  C_77 
REMARK   38  A    between atoms: C_77  and  C_78 
REMARK   39  A    between atoms: C_77  and  N_91 
REMARK   40  A    between atoms: C_78  and  C_79 
REMARK   41  A    between atoms: C_79  and  C_80 
REMARK   42  A    between atoms: C_79  and  N_106 
REMARK   43  A    between atoms: C_80  and  C_81 
REMARK   44  A    between atoms: C_81  and  N_96 
REMARK   45  A    between atoms: N_113  and  C_119 
REMARK   46  A    between atoms: C_118  and  C_119 
REMARK   47  A    between atoms: C_119  and  C_126 
REMARK   48  A    between atoms: N_122  and  C_128 
REMARK   49  A    between atoms: C_124  and  C_128 
REMARK   50  A    between atoms: C_124  and  C_130 
REMARK   51  A    between atoms: N_125  and  C_135 
REMARK   52  A    between atoms: C_126  and  C_130 
REMARK   53  A    between atoms: C_128  and  C_132 
REMARK   54  A    between atoms: N_129  and  C_130 
REMARK   55  A    between atoms: C_132  and  C_137 
REMARK   56  A    between atoms: C_135  and  C_136 
REMARK   57  A    between atoms: C_136  and  C_137 
REMARK   58  A    between atoms: C_137  and  N_140 
ROOT
HETATM    1  C   UNL     1       0.370   7.637   8.309  1.00  0.00     0.186 C 
HETATM    2  C   UNL     1       1.166   8.371   7.161  1.00  0.00     0.179 C 
HETATM    3  C   UNL     1       0.670   6.109   8.445  1.00  0.00     0.188 C 
HETATM    4  C   UNL     1       2.100   5.686   7.970  1.00  0.00     0.306 C 
HETATM    5  C   UNL     1       2.056   6.254   6.502  1.00  0.00     0.296 C 
HETATM    6  O   UNL     1       2.283   7.648   6.568  1.00  0.00    -0.349 OA
ENDROOT
BRANCH   1   7
HETATM    7  O   UNL     1       0.577   8.323   9.559  1.00  0.00    -0.348 OA
BRANCH   7   8
HETATM    8  C   UNL     1      -0.313   9.438   9.795  1.00  0.00     0.296 C 
HETATM    9  O   UNL     1       0.433  10.636   9.547  1.00  0.00    -0.349 OA
HETATM   10  C   UNL     1      -0.235  11.881   9.855  1.00  0.00     0.179 C 
HETATM   11  C   UNL     1      -0.892  11.880  11.252  1.00  0.00     0.186 C 
HETATM   12  C   UNL     1      -0.461  10.640  12.045  1.00  0.00     0.187 C 
HETATM   13  C   UNL     1      -0.861   9.382  11.264  1.00  0.00     0.303 C 
BRANCH  10  14
HETATM   14  C   UNL     1      -1.245  12.251   8.751  1.00  0.00     0.198 C 
BRANCH  14  15
HETATM   15  O   UNL     1      -2.155  13.262   9.183  1.00  0.00    -0.398 OA
HETATM   16  H   UNL     1      -2.072  13.340  10.151  1.00  0.00     0.209 HD
ENDBRANCH  14  15
ENDBRANCH  10  14
BRANCH  11  17
HETATM   17  O   UNL     1      -0.521  13.016  12.036  1.00  0.00    -0.348 OA
BRANCH  17  18
HETATM   18  C   UNL     1      -1.595  13.697  12.671  1.00  0.00     0.296 C 
HETATM   19  O   UNL     1      -1.511  15.085  12.361  1.00  0.00    -0.351 OA
HETATM   20  C   UNL     1      -1.886  16.003  13.400  1.00  0.00     0.150 C 
HETATM   21  C   UNL     1      -3.065  15.475  14.214  1.00  0.00     0.068 C 
HETATM   22  C   UNL     1      -2.785  14.091  14.814  1.00  0.00     0.158 C 
HETATM   23  C   UNL     1      -1.574  13.351  14.187  1.00  0.00     0.303 C 
BRANCH  20  24
HETATM   24  C   UNL     1      -2.218  17.359  12.755  1.00  0.00     0.196 C 
BRANCH  24  25
HETATM   25  O   UNL     1      -2.917  17.152  11.528  1.00  0.00    -0.398 OA
HETATM   26  H   UNL     1      -2.483  17.695  10.849  1.00  0.00     0.209 HD
ENDBRANCH  24  25
ENDBRANCH  20  24
BRANCH  22  27
HETATM   27  O   UNL     1      -2.612  14.214  16.229  1.00  0.00    -0.393 OA
HETATM   28  H   UNL     1      -3.491  14.478  16.573  1.00  0.00     0.210 HD
ENDBRANCH  22  27
BRANCH  23  29
HETATM   29  N   UNL     1      -0.347  13.725  14.947  1.00  0.00     0.097 N 
HETATM   30  H   UNL     1       0.220  14.296  14.310  1.00  0.00     0.316 HD
BRANCH  29  31
HETATM   31  C   UNL     1       0.553  12.632  15.353  1.00  0.00     0.296 C 
BRANCH  31  32
HETATM   32  C   UNL     1       0.007  11.609  16.440  1.00  0.00     0.120 C 
BRANCH  32  33
HETATM   33  C   UNL     1       1.093  11.398  17.561  1.00  0.00     0.053 C 
BRANCH  33  34
HETATM   34  C   UNL     1       2.648  11.517  17.237  1.00  0.00     0.094 C 
BRANCH  34  35
HETATM   35  C   UNL     1       3.227  12.892  17.761  1.00  0.00     0.051 C 
BRANCH  35  36
HETATM   36  C   UNL     1       4.591  13.500  17.248  1.00  0.00     0.094 C 
BRANCH  36  37
HETATM   37  C   UNL     1       4.439  14.985  16.759  1.00  0.00     0.051 C 
BRANCH  37  38
HETATM   38  C   UNL     1       4.346  15.286  15.216  1.00  0.00     0.094 C 
BRANCH  38  39
HETATM   39  C   UNL     1       5.443  16.316  14.758  1.00  0.00     0.051 C 
BRANCH  39  40
HETATM   40  C   UNL     1       6.379  16.069  13.543  1.00  0.00     0.089 C 
HETATM   41  C   UNL     1       7.337  17.267  13.392  1.00  0.00     0.033 C 
BRANCH  40  42
HETATM   42  N   UNL     1       7.174  14.849  13.592  1.00  0.00    -0.334 N 
HETATM   43  C   UNL     1       7.839  14.383  14.698  1.00  0.00     0.210 A 
HETATM   44  N   UNL     1       8.415  13.226  14.462  1.00  0.00    -0.254 NA
HETATM   45  C   UNL     1       8.111  12.934  13.158  1.00  0.00     0.150 A 
HETATM   46  C   UNL     1       7.341  13.927  12.596  1.00  0.00     0.082 A 
ENDBRANCH  40  42
ENDBRANCH  39  40
ENDBRANCH  38  39
BRANCH  38  47
HETATM   47  N   UNL     1       3.980  14.210  14.314  1.00  0.00    -0.345 N 
HETATM   48  C   UNL     1       3.132  14.213  13.247  1.00  0.00     0.209 A 
HETATM   49  N   UNL     1       2.999  13.014  12.724  1.00  0.00    -0.255 NA
HETATM   50  C   UNL     1       3.837  12.205  13.433  1.00  0.00     0.135 A 
HETATM   51  C   UNL     1       4.458  12.921  14.427  1.00  0.00     0.111 A 
ENDBRANCH  38  47
ENDBRANCH  37  38
ENDBRANCH  36  37
BRANCH  36  52
HETATM   52  N   UNL     1       5.638  13.463  18.283  1.00  0.00    -0.345 N 
HETATM   53  C   UNL     1       6.796  14.191  18.282  1.00  0.00     0.209 A 
HETATM   54  N   UNL     1       7.496  14.003  19.378  1.00  0.00    -0.255 NA
HETATM   55  C   UNL     1       6.780  13.108  20.116  1.00  0.00     0.135 A 
HETATM   56  C   UNL     1       5.597  12.806  19.485  1.00  0.00     0.111 A 
ENDBRANCH  36  52
ENDBRANCH  35  36
ENDBRANCH  34  35
BRANCH  34  57
HETATM   57  N   UNL     1       3.398  10.273  17.398  1.00  0.00    -0.345 N 
HETATM   58  C   UNL     1       4.507   9.907  16.675  1.00  0.00     0.209 A 
HETATM   59  N   UNL     1       4.835   8.648  16.855  1.00  0.00    -0.255 NA
HETATM   60  C   UNL     1       3.881   8.147  17.686  1.00  0.00     0.135 A 
HETATM   61  C   UNL     1       2.952   9.113  17.986  1.00  0.00     0.111 A 
ENDBRANCH  34  57
ENDBRANCH  33  34
ENDBRANCH  32  33
BRANCH  32  62
HETATM   62  N   UNL     1      -0.628  10.388  15.928  1.00  0.00    -0.344 N 
HETATM   63  C   UNL     1      -1.951  10.049  15.824  1.00  0.00     0.111 A 
HETATM   64  C   UNL     1      -1.992   8.788  15.283  1.00  0.00     0.135 A 
HETATM   65  N   UNL     1      -0.734   8.315  15.090  1.00  0.00    -0.255 NA
HETATM   66  C   UNL     1       0.059   9.279  15.496  1.00  0.00     0.209 A 
ENDBRANCH  32  62
ENDBRANCH  31  32
ENDBRANCH  29  31
ENDBRANCH  23  29
ENDBRANCH  17  18
ENDBRANCH  11  17
BRANCH  12  67
HETATM   67  O   UNL     1       0.952  10.642  12.315  1.00  0.00    -0.391 OA
HETATM   68  H   UNL     1       1.068  10.858  13.261  1.00  0.00     0.210 HD
ENDBRANCH  12  67
BRANCH  13  69
HETATM   69  N   UNL     1      -0.467   8.193  12.048  1.00  0.00     0.090 N 
HETATM   70  H   UNL     1      -0.642   7.381  11.448  1.00  0.00     0.313 HD
HETATM   71  H   UNL     1      -1.178   8.105  12.785  1.00  0.00     0.313 HD
ENDBRANCH  13  69
ENDBRANCH   7   8
ENDBRANCH   1   7
BRANCH   2  72
HETATM   72  C   UNL     1       0.174   8.803   6.047  1.00  0.00     0.198 C 
BRANCH  72  73
HETATM   73  O   UNL     1       0.596   8.341   4.769  1.00  0.00    -0.398 OA
HETATM   74  H   UNL     1       1.293   8.938   4.448  1.00  0.00     0.209 HD
ENDBRANCH  72  73
ENDBRANCH   2  72
BRANCH   3  75
HETATM   75  O   UNL     1       0.310   5.579   9.719  1.00  0.00    -0.391 OA
HETATM   76  H   UNL     1      -0.565   5.159   9.629  1.00  0.00     0.210 HD
ENDBRANCH   3  75
BRANCH   4  77
HETATM   77  N   UNL     1       3.082   5.985   9.091  1.00  0.00     0.097 N 
HETATM   78  H   UNL     1       2.575   6.495   9.813  1.00  0.00     0.316 HD
BRANCH  77  79
HETATM   79  C   UNL     1       3.847   4.896   9.747  1.00  0.00     0.296 C 
BRANCH  79  80
HETATM   80  C   UNL     1       3.509   4.524  11.327  1.00  0.00     0.120 C 
BRANCH  80  81
HETATM   81  N   UNL     1       3.402   5.684  12.215  1.00  0.00    -0.344 N 
HETATM   82  C   UNL     1       4.276   6.131  13.171  1.00  0.00     0.111 A 
HETATM   83  C   UNL     1       3.648   7.190  13.791  1.00  0.00     0.135 A 
HETATM   84  N   UNL     1       2.408   7.393  13.254  1.00  0.00    -0.255 NA
HETATM   85  C   UNL     1       2.282   6.469  12.345  1.00  0.00     0.209 A 
ENDBRANCH  80  81
BRANCH  80  86
HETATM   86  C   UNL     1       2.381   3.412  11.487  1.00  0.00     0.053 C 
BRANCH  86  87
HETATM   87  C   UNL     1       1.726   2.835  12.857  1.00  0.00     0.094 C 
BRANCH  87  88
HETATM   88  C   UNL     1       0.164   3.091  13.074  1.00  0.00     0.051 C 
BRANCH  88  89
HETATM   89  C   UNL     1      -0.468   3.083  14.560  1.00  0.00     0.094 C 
BRANCH  89  90
HETATM   90  N   UNL     1       0.343   3.812  15.556  1.00  0.00    -0.345 N 
HETATM   91  C   UNL     1       0.733   3.397  16.801  1.00  0.00     0.111 A 
HETATM   92  C   UNL     1       1.318   4.490  17.398  1.00  0.00     0.135 A 
HETATM   93  N   UNL     1       1.270   5.569  16.570  1.00  0.00    -0.255 NA
HETATM   94  C   UNL     1       0.723   5.127  15.463  1.00  0.00     0.209 A 
ENDBRANCH  89  90
BRANCH  89  95
HETATM   95  C   UNL     1      -0.741   1.630  15.128  1.00  0.00     0.051 C 
BRANCH  95  96
HETATM   96  C   UNL     1      -2.190   0.978  15.022  1.00  0.00     0.094 C 
BRANCH  96  97
HETATM   97  C   UNL     1      -3.311   2.066  14.781  1.00  0.00     0.051 C 
BRANCH  97  98
HETATM   98  C   UNL     1      -4.137   2.723  15.930  1.00  0.00     0.089 C 
HETATM   99  C   UNL     1      -4.580   1.632  16.927  1.00  0.00     0.033 C 
BRANCH  98 100
HETATM  100  N   UNL     1      -3.451   3.768  16.681  1.00  0.00    -0.334 N 
HETATM  101  C   UNL     1      -3.166   5.037  16.257  1.00  0.00     0.082 A 
HETATM  102  C   UNL     1      -2.430   5.595  17.278  1.00  0.00     0.150 A 
HETATM  103  N   UNL     1      -2.253   4.700  18.301  1.00  0.00    -0.254 NA
HETATM  104  C   UNL     1      -2.885   3.614  17.920  1.00  0.00     0.210 A 
ENDBRANCH  98 100
ENDBRANCH  97  98
ENDBRANCH  96  97
BRANCH  96 105
HETATM  105  N   UNL     1      -2.353  -0.325  14.402  1.00  0.00    -0.345 N 
HETATM  106  C   UNL     1      -2.870  -1.481  14.913  1.00  0.00     0.209 A 
HETATM  107  N   UNL     1      -2.738  -2.490  14.079  1.00  0.00    -0.255 NA
HETATM  108  C   UNL     1      -2.159  -1.970  12.960  1.00  0.00     0.135 A 
HETATM  109  C   UNL     1      -1.910  -0.631  13.132  1.00  0.00     0.111 A 
ENDBRANCH  96 105
ENDBRANCH  95  96
ENDBRANCH  89  95
ENDBRANCH  88  89
ENDBRANCH  87  88
BRANCH  87 110
HETATM  110  N   UNL     1       2.300   1.567  13.327  1.00  0.00    -0.345 N 
HETATM  111  C   UNL     1       2.962   1.333  14.504  1.00  0.00     0.111 A 
HETATM  112  C   UNL     1       3.107  -0.029  14.605  1.00  0.00     0.135 A 
HETATM  113  N   UNL     1       2.470  -0.654  13.578  1.00  0.00    -0.255 NA
HETATM  114  C   UNL     1       1.969   0.317  12.850  1.00  0.00     0.209 A 
ENDBRANCH  87 110
ENDBRANCH  86  87
ENDBRANCH  80  86
ENDBRANCH  79  80
ENDBRANCH  77  79
ENDBRANCH   4  77
BRANCH   5 115
HETATM  115  O   UNL     1       2.858   5.525   5.552  1.00  0.00    -0.348 OA
BRANCH 115 116
HETATM  116  C   UNL     1       2.064   4.765   4.566  1.00  0.00     0.186 C 
HETATM  117  C   UNL     1       0.536   4.857   4.829  1.00  0.00     0.179 C 
HETATM  118  O   UNL     1      -0.140   5.727   3.903  1.00  0.00    -0.349 OA
HETATM  119  C   UNL     1      -0.063   5.362   2.521  1.00  0.00     0.296 C 
HETATM  120  C   UNL     1       1.372   4.893   2.096  1.00  0.00     0.303 C 
HETATM  121  C   UNL     1       2.437   5.268   3.154  1.00  0.00     0.187 C 
BRANCH 117 122
HETATM  122  C   UNL     1      -0.144   3.470   4.813  1.00  0.00     0.198 C 
BRANCH 122 123
HETATM  123  O   UNL     1      -0.858   3.227   6.021  1.00  0.00    -0.398 OA
HETATM  124  H   UNL     1      -0.942   4.075   6.501  1.00  0.00     0.209 HD
ENDBRANCH 122 123
ENDBRANCH 117 122
BRANCH 119 125
HETATM  125  O   UNL     1      -0.464   6.505   1.748  1.00  0.00    -0.348 OA
BRANCH 125 126
HETATM  126  C   UNL     1      -1.797   6.466   1.200  1.00  0.00     0.186 C 
HETATM  127  C   UNL     1      -2.777   7.324   2.041  1.00  0.00     0.176 C 
HETATM  128  O   UNL     1      -3.707   8.081   1.224  1.00  0.00    -0.379 OA
HETATM  129  C   UNL     1      -4.243   7.340   0.126  1.00  0.00     0.206 C 
HETATM  130  C   UNL     1      -3.148   6.994  -0.903  1.00  0.00     0.272 C 
HETATM  131  C   UNL     1      -1.746   7.032  -0.242  1.00  0.00     0.184 C 
BRANCH 127 132
HETATM  132  C   UNL     1      -3.586   6.503   3.057  1.00  0.00     0.198 C 
BRANCH 132 133
HETATM  133  O   UNL     1      -3.526   5.117   2.719  1.00  0.00    -0.398 OA
HETATM  134  H   UNL     1      -2.578   4.874   2.721  1.00  0.00     0.209 HD
ENDBRANCH 132 133
ENDBRANCH 127 132
BRANCH 130 135
HETATM  135  N   UNL     1      -3.175   7.869  -2.094  1.00  0.00     0.087 N 
HETATM  136  H   UNL     1      -2.475   8.608  -1.954  1.00  0.00     0.313 HD
HETATM  137  H   UNL     1      -4.065   8.359  -2.175  1.00  0.00     0.313 HD
ENDBRANCH 130 135
BRANCH 131 138
HETATM  138  O   UNL     1      -1.256   8.391  -0.252  1.00  0.00    -0.391 OA
HETATM  139  H   UNL     1      -0.604   8.450  -0.976  1.00  0.00     0.210 HD
ENDBRANCH 131 138
ENDBRANCH 125 126
ENDBRANCH 119 125
BRANCH 120 140
HETATM  140  N   UNL     1       1.748   5.353   0.737  1.00  0.00     0.090 N 
HETATM  141  H   UNL     1       1.911   4.536   0.145  1.00  0.00     0.313 HD
HETATM  142  H   UNL     1       2.697   5.742   0.839  1.00  0.00     0.313 HD
ENDBRANCH 120 140
BRANCH 121 143
HETATM  143  O   UNL     1       2.697   6.674   3.144  1.00  0.00    -0.391 OA
HETATM  144  H   UNL     1       2.758   6.938   2.203  1.00  0.00     0.210 HD
ENDBRANCH 121 143
ENDBRANCH 115 116
ENDBRANCH   5 115
TORSDOF 58
ENDMDL
MODEL 7
REMARK VINA RESULT:      -7.9      3.678     15.241
REMARK WARNING: 32 MAX_TORS EXCEEDED!!!
REMARK  58 active torsions:
REMARK  status: ('A' for Active; 'I' for Inactive)
REMARK    1  A    between atoms: C_1  and  O_30 
REMARK    2  A    between atoms: C_2  and  C_6 
REMARK    3  A    between atoms: C_3  and  O_9 
REMARK    4  A    between atoms: C_4  and  N_11 
REMARK    5  A    between atoms: C_5  and  O_12 
REMARK    6  A    between atoms: C_6  and  O_7 
REMARK    7  A    between atoms: N_11  and  C_118 
REMARK    8  A    between atoms: O_12  and  C_20 
REMARK    9  A    between atoms: O_14  and  C_18 
REMARK   10  A    between atoms: C_16  and  C_23 
REMARK   11  A    between atoms: O_17  and  C_23 
REMARK   12  A    between atoms: O_19  and  C_22 
REMARK   13  A    between atoms: O_19  and  C_42 
REMARK   14  A    between atoms: N_21  and  C_24 
REMARK   15  A    between atoms: O_26  and  C_29 
REMARK   16  A    between atoms: C_28  and  C_34 
REMARK   17  A    between atoms: O_30  and  C_33 
REMARK   18  A    between atoms: C_31  and  O_53 
REMARK   19  A    between atoms: N_32  and  C_35 
REMARK   20  A    between atoms: C_34  and  O_65 
REMARK   21  A    between atoms: O_37  and  C_41 
REMARK   22  A    between atoms: C_39  and  C_45 
REMARK   23  A    between atoms: O_40  and  C_45 
REMARK   24  A    between atoms: N_43  and  C_46 
REMARK   25  A    between atoms: O_48  and  C_52 
REMARK   26  A    between atoms: C_50  and  C_57 
REMARK   27  A    between atoms: O_51  and  C_57 
REMARK   28  A    between atoms: O_53  and  C_56 
REMARK   29  A    between atoms: N_55  and  C_58 
REMARK   30  A    between atoms: N_55  and  C_71 
REMARK   31  A    between atoms: C_71  and  C_73 
REMARK   32  A    between atoms: C_73  and  C_74 
REMARK   33  A    between atoms: C_73  and  N_87 
REMARK   34  A    between atoms: C_74  and  C_75 
REMARK   35  A    between atoms: C_75  and  C_76 
REMARK   36  A    between atoms: C_75  and  N_101 
REMARK   37  A    between atoms: C_76  and  C_77 
REMARK   38  A    between atoms: C_77  and  C_78 
REMARK   39  A    between atoms: C_77  and  N_91 
REMARK   40  A    between atoms: C_78  and  C_79 
REMARK   41  A    between atoms: C_79  and  C_80 
REMARK   42  A    between atoms: C_79  and  N_106 
REMARK   43  A    between atoms: C_80  and  C_81 
REMARK   44  A    between atoms: C_81  and  N_96 
REMARK   45  A    between atoms: N_113  and  C_119 
REMARK   46  A    between atoms: C_118  and  C_119 
REMARK   47  A    between atoms: C_119  and  C_126 
REMARK   48  A    between atoms: N_122  and  C_128 
REMARK   49  A    between atoms: C_124  and  C_128 
REMARK   50  A    between atoms: C_124  and  C_130 
REMARK   51  A    between atoms: N_125  and  C_135 
REMARK   52  A    between atoms: C_126  and  C_130 
REMARK   53  A    between atoms: C_128  and  C_132 
REMARK   54  A    between atoms: N_129  and  C_130 
REMARK   55  A    between atoms: C_132  and  C_137 
REMARK   56  A    between atoms: C_135  and  C_136 
REMARK   57  A    between atoms: C_136  and  C_137 
REMARK   58  A    between atoms: C_137  and  N_140 
ROOT
HETATM    1  C   UNL     1      -0.059   7.488   9.604  1.00  0.00     0.186 C 
HETATM    2  C   UNL     1       0.675   8.516   8.658  1.00  0.00     0.179 C 
HETATM    3  C   UNL     1       0.217   5.984   9.282  1.00  0.00     0.188 C 
HETATM    4  C   UNL     1       1.604   5.711   8.609  1.00  0.00     0.306 C 
HETATM    5  C   UNL     1       1.475   6.671   7.368  1.00  0.00     0.296 C 
HETATM    6  O   UNL     1       1.735   7.989   7.809  1.00  0.00    -0.349 OA
ENDROOT
BRANCH   1   7
HETATM    7  O   UNL     1       0.245   7.791  10.980  1.00  0.00    -0.348 OA
BRANCH   7   8
HETATM    8  C   UNL     1      -0.672   8.711  11.615  1.00  0.00     0.296 C 
HETATM    9  O   UNL     1       0.117   9.728  12.247  1.00  0.00    -0.349 OA
HETATM   10  C   UNL     1      -0.602  10.684  13.059  1.00  0.00     0.179 C 
HETATM   11  C   UNL     1      -1.589  10.015  14.041  1.00  0.00     0.186 C 
HETATM   12  C   UNL     1      -1.374   8.497  14.063  1.00  0.00     0.187 C 
HETATM   13  C   UNL     1      -1.570   7.942  12.648  1.00  0.00     0.303 C 
BRANCH  10  14
HETATM   14  C   UNL     1      -1.303  11.737  12.179  1.00  0.00     0.198 C 
BRANCH  14  15
HETATM   15  O   UNL     1      -0.974  11.580  10.800  1.00  0.00    -0.398 OA
HETATM   16  H   UNL     1      -1.688  11.990  10.277  1.00  0.00     0.209 HD
ENDBRANCH  14  15
ENDBRANCH  10  14
BRANCH  11  17
HETATM   17  O   UNL     1      -1.421  10.471  15.386  1.00  0.00    -0.348 OA
BRANCH  17  18
HETATM   18  C   UNL     1      -2.450  10.094  16.290  1.00  0.00     0.296 C 
HETATM   19  O   UNL     1      -3.707  10.500  15.758  1.00  0.00    -0.351 OA
HETATM   20  C   UNL     1      -4.689  10.963  16.699  1.00  0.00     0.150 C 
HETATM   21  C   UNL     1      -4.636  10.165  17.999  1.00  0.00     0.068 C 
HETATM   22  C   UNL     1      -3.244  10.189  18.641  1.00  0.00     0.158 C 
HETATM   23  C   UNL     1      -2.108  10.664  17.697  1.00  0.00     0.303 C 
BRANCH  20  24
HETATM   24  C   UNL     1      -6.076  10.865  16.041  1.00  0.00     0.196 C 
BRANCH  24  25
HETATM   25  O   UNL     1      -5.941  10.899  14.621  1.00  0.00    -0.398 OA
HETATM   26  H   UNL     1      -5.000  11.041  14.421  1.00  0.00     0.209 HD
ENDBRANCH  24  25
ENDBRANCH  20  24
BRANCH  22  27
HETATM   27  O   UNL     1      -3.279  11.001  19.819  1.00  0.00    -0.393 OA
HETATM   28  H   UNL     1      -3.092  10.387  20.559  1.00  0.00     0.210 HD
ENDBRANCH  22  27
BRANCH  23  29
HETATM   29  N   UNL     1      -1.985  12.145  17.812  1.00  0.00     0.097 N 
HETATM   30  H   UNL     1      -2.789  12.538  17.311  1.00  0.00     0.316 HD
BRANCH  29  31
HETATM   31  C   UNL     1      -0.817  12.776  17.174  1.00  0.00     0.296 C 
BRANCH  31  32
HETATM   32  C   UNL     1      -1.095  13.729  15.932  1.00  0.00     0.120 C 
BRANCH  32  33
HETATM   33  C   UNL     1      -0.079  14.931  15.949  1.00  0.00     0.053 C 
BRANCH  33  34
HETATM   34  C   UNL     1       0.399  15.628  14.599  1.00  0.00     0.094 C 
BRANCH  34  35
HETATM   35  C   UNL     1       1.520  14.768  13.889  1.00  0.00     0.051 C 
BRANCH  35  36
HETATM   36  C   UNL     1       2.976  14.600  14.478  1.00  0.00     0.094 C 
BRANCH  36  37
HETATM   37  C   UNL     1       3.908  13.752  13.540  1.00  0.00     0.051 C 
BRANCH  37  38
HETATM   38  C   UNL     1       4.735  12.556  14.146  1.00  0.00     0.094 C 
BRANCH  38  39
HETATM   39  C   UNL     1       5.975  13.065  14.969  1.00  0.00     0.051 C 
BRANCH  39  40
HETATM   40  C   UNL     1       7.309  13.502  14.303  1.00  0.00     0.089 C 
HETATM   41  C   UNL     1       7.629  12.543  13.140  1.00  0.00     0.033 C 
BRANCH  40  42
HETATM   42  N   UNL     1       7.348  14.867  13.796  1.00  0.00    -0.334 N 
HETATM   43  C   UNL     1       7.630  15.980  14.545  1.00  0.00     0.210 A 
HETATM   44  N   UNL     1       7.660  17.065  13.806  1.00  0.00    -0.254 NA
HETATM   45  C   UNL     1       7.388  16.637  12.532  1.00  0.00     0.150 A 
HETATM   46  C   UNL     1       7.191  15.275  12.501  1.00  0.00     0.082 A 
ENDBRANCH  40  42
ENDBRANCH  39  40
ENDBRANCH  38  39
BRANCH  38  47
HETATM   47  N   UNL     1       4.023  11.380  14.611  1.00  0.00    -0.345 N 
HETATM   48  C   UNL     1       2.879  10.807  14.142  1.00  0.00     0.209 A 
HETATM   49  N   UNL     1       2.500   9.789  14.884  1.00  0.00    -0.255 NA
HETATM   50  C   UNL     1       3.464   9.648  15.838  1.00  0.00     0.135 A 
HETATM   51  C   UNL     1       4.421  10.623  15.693  1.00  0.00     0.111 A 
ENDBRANCH  38  47
ENDBRANCH  37  38
ENDBRANCH  36  37
BRANCH  36  52
HETATM   52  N   UNL     1       3.627  15.897  14.722  1.00  0.00    -0.345 N 
HETATM   53  C   UNL     1       3.853  16.872  13.788  1.00  0.00     0.209 A 
HETATM   54  N   UNL     1       4.383  17.949  14.319  1.00  0.00    -0.255 NA
HETATM   55  C   UNL     1       4.524  17.667  15.646  1.00  0.00     0.135 A 
HETATM   56  C   UNL     1       4.008  16.425  15.928  1.00  0.00     0.111 A 
ENDBRANCH  36  52
ENDBRANCH  35  36
ENDBRANCH  34  35
BRANCH  34  57
HETATM   57  N   UNL     1      -0.673  16.254  13.827  1.00  0.00    -0.345 N 
HETATM   58  C   UNL     1      -1.417  17.338  14.224  1.00  0.00     0.209 A 
HETATM   59  N   UNL     1      -2.462  17.542  13.455  1.00  0.00    -0.255 NA
HETATM   60  C   UNL     1      -2.439  16.528  12.547  1.00  0.00     0.135 A 
HETATM   61  C   UNL     1      -1.381  15.689  12.794  1.00  0.00     0.111 A 
ENDBRANCH  34  57
ENDBRANCH  33  34
ENDBRANCH  32  33
BRANCH  32  62
HETATM   62  N   UNL     1      -2.498  14.081  15.680  1.00  0.00    -0.344 N 
HETATM   63  C   UNL     1      -3.373  13.628  14.729  1.00  0.00     0.111 A 
HETATM   64  C   UNL     1      -4.557  14.292  14.935  1.00  0.00     0.135 A 
HETATM   65  N   UNL     1      -4.430  15.177  15.957  1.00  0.00    -0.255 NA
HETATM   66  C   UNL     1      -3.192  15.044  16.373  1.00  0.00     0.209 A 
ENDBRANCH  32  62
ENDBRANCH  31  32
ENDBRANCH  29  31
ENDBRANCH  23  29
ENDBRANCH  17  18
ENDBRANCH  11  17
BRANCH  12  67
HETATM   67  O   UNL     1      -0.074   8.147  14.570  1.00  0.00    -0.391 OA
HETATM   68  H   UNL     1       0.583   8.687  14.088  1.00  0.00     0.210 HD
ENDBRANCH  12  67
BRANCH  13  69
HETATM   69  N   UNL     1      -1.389   6.476  12.683  1.00  0.00     0.090 N 
HETATM   70  H   UNL     1      -1.780   6.159  13.577  1.00  0.00     0.313 HD
HETATM   71  H   UNL     1      -0.378   6.329  12.798  1.00  0.00     0.313 HD
ENDBRANCH  13  69
ENDBRANCH   7   8
ENDBRANCH   1   7
BRANCH   2  72
HETATM   72  C   UNL     1      -0.379   9.248   7.784  1.00  0.00     0.198 C 
BRANCH  72  73
HETATM   73  O   UNL     1      -1.556   9.541   8.526  1.00  0.00    -0.398 OA
HETATM   74  H   UNL     1      -1.289   9.964   9.361  1.00  0.00     0.209 HD
ENDBRANCH  72  73
ENDBRANCH   2  72
BRANCH   3  75
HETATM   75  O   UNL     1      -0.068   5.115  10.376  1.00  0.00    -0.391 OA
HETATM   76  H   UNL     1       0.095   4.201  10.079  1.00  0.00     0.210 HD
ENDBRANCH   3  75
BRANCH   4  77
HETATM   77  N   UNL     1       2.665   5.679   9.698  1.00  0.00     0.097 N 
HETATM   78  H   UNL     1       2.265   6.118  10.526  1.00  0.00     0.316 HD
BRANCH  77  79
HETATM   79  C   UNL     1       3.294   4.401  10.113  1.00  0.00     0.296 C 
BRANCH  79  80
HETATM   80  C   UNL     1       3.050   3.858  11.660  1.00  0.00     0.120 C 
BRANCH  80  81
HETATM   81  N   UNL     1       3.013   4.912  12.676  1.00  0.00    -0.344 N 
HETATM   82  C   UNL     1       4.046   5.487  13.369  1.00  0.00     0.111 A 
HETATM   83  C   UNL     1       3.461   6.342  14.278  1.00  0.00     0.135 A 
HETATM   84  N   UNL     1       2.099   6.295  14.173  1.00  0.00    -0.255 NA
HETATM   85  C   UNL     1       1.866   5.419  13.237  1.00  0.00     0.209 A 
ENDBRANCH  80  81
BRANCH  80  86
HETATM   86  C   UNL     1       1.919   2.742  11.767  1.00  0.00     0.053 C 
BRANCH  86  87
HETATM   87  C   UNL     1       1.318   2.045  13.105  1.00  0.00     0.094 C 
BRANCH  87  88
HETATM   88  C   UNL     1       0.014   1.140  12.925  1.00  0.00     0.051 C 
BRANCH  88  89
HETATM   89  C   UNL     1      -0.789   0.594  14.215  1.00  0.00     0.094 C 
BRANCH  89  90
HETATM   90  N   UNL     1      -0.880  -0.879  14.281  1.00  0.00    -0.345 N 
HETATM   91  C   UNL     1      -0.002  -1.759  14.855  1.00  0.00     0.111 A 
HETATM   92  C   UNL     1      -0.440  -3.015  14.501  1.00  0.00     0.135 A 
HETATM   93  N   UNL     1      -1.539  -2.930  13.704  1.00  0.00    -0.255 NA
HETATM   94  C   UNL     1      -1.806  -1.648  13.624  1.00  0.00     0.209 A 
ENDBRANCH  89  90
BRANCH  89  95
HETATM   95  C   UNL     1      -2.256   1.176  14.345  1.00  0.00     0.051 C 
BRANCH  95  96
HETATM   96  C   UNL     1      -2.669   2.060  15.604  1.00  0.00     0.094 C 
BRANCH  96  97
HETATM   97  C   UNL     1      -2.644   1.224  16.945  1.00  0.00     0.051 C 
BRANCH  97  98
HETATM   98  C   UNL     1      -3.871   0.426  17.487  1.00  0.00     0.089 C 
HETATM   99  C   UNL     1      -5.170   1.054  16.940  1.00  0.00     0.033 C 
BRANCH  98 100
HETATM  100  N   UNL     1      -3.889  -0.997  17.165  1.00  0.00    -0.334 N 
HETATM  101  C   UNL     1      -2.866  -1.892  17.324  1.00  0.00     0.082 A 
HETATM  102  C   UNL     1      -3.338  -3.069  16.789  1.00  0.00     0.150 A 
HETATM  103  N   UNL     1      -4.610  -2.911  16.301  1.00  0.00    -0.254 NA
HETATM  104  C   UNL     1      -4.919  -1.659  16.550  1.00  0.00     0.210 A 
ENDBRANCH  98 100
ENDBRANCH  97  98
ENDBRANCH  96  97
BRANCH  96 105
HETATM  105  N   UNL     1      -2.289   3.460  15.660  1.00  0.00    -0.345 N 
HETATM  106  C   UNL     1      -1.096   4.057  15.370  1.00  0.00     0.209 A 
HETATM  107  N   UNL     1      -1.105   5.340  15.660  1.00  0.00    -0.255 NA
HETATM  108  C   UNL     1      -2.362   5.609  16.110  1.00  0.00     0.135 A 
HETATM  109  C   UNL     1      -3.118   4.462  16.121  1.00  0.00     0.111 A 
ENDBRANCH  96 105
ENDBRANCH  95  96
ENDBRANCH  89  95
ENDBRANCH  88  89
ENDBRANCH  87  88
BRANCH  87 110
HETATM  110  N   UNL     1       2.327   1.632  14.090  1.00  0.00    -0.345 N 
HETATM  111  C   UNL     1       2.662   2.262  15.260  1.00  0.00     0.111 A 
HETATM  112  C   UNL     1       3.478   1.396  15.948  1.00  0.00     0.135 A 
HETATM  113  N   UNL     1       3.580   0.210  15.288  1.00  0.00    -0.255 NA
HETATM  114  C   UNL     1       2.859   0.365  14.202  1.00  0.00     0.209 A 
ENDBRANCH  87 110
ENDBRANCH  86  87
ENDBRANCH  80  86
ENDBRANCH  79  80
ENDBRANCH  77  79
ENDBRANCH   4  77
BRANCH   5 115
HETATM  115  O   UNL     1       2.198   6.241   6.197  1.00  0.00    -0.348 OA
BRANCH 115 116
HETATM  116  C   UNL     1       1.431   5.321   5.334  1.00  0.00     0.186 C 
HETATM  117  C   UNL     1      -0.099   5.585   5.387  1.00  0.00     0.179 C 
HETATM  118  O   UNL     1      -0.593   6.245   4.207  1.00  0.00    -0.349 OA
HETATM  119  C   UNL     1      -0.420   5.546   2.971  1.00  0.00     0.296 C 
HETATM  120  C   UNL     1       0.995   4.884   2.840  1.00  0.00     0.303 C 
HETATM  121  C   UNL     1       1.986   5.431   3.897  1.00  0.00     0.187 C 
BRANCH 117 122
HETATM  122  C   UNL     1      -0.907   4.289   5.621  1.00  0.00     0.198 C 
BRANCH 122 123
HETATM  123  O   UNL     1      -0.056   3.148   5.674  1.00  0.00    -0.398 OA
HETATM  124  H   UNL     1       0.335   3.018   4.787  1.00  0.00     0.209 HD
ENDBRANCH 122 123
ENDBRANCH 117 122
BRANCH 119 125
HETATM  125  O   UNL     1      -0.631   6.488   1.907  1.00  0.00    -0.348 OA
BRANCH 125 126
HETATM  126  C   UNL     1      -1.915   6.432   1.252  1.00  0.00     0.186 C 
HETATM  127  C   UNL     1      -2.988   7.216   2.051  1.00  0.00     0.176 C 
HETATM  128  O   UNL     1      -3.878   7.982   1.197  1.00  0.00    -0.379 OA
HETATM  129  C   UNL     1      -4.298   7.277   0.027  1.00  0.00     0.206 C 
HETATM  130  C   UNL     1      -3.114   7.017  -0.926  1.00  0.00     0.272 C 
HETATM  131  C   UNL     1      -1.771   7.068  -0.153  1.00  0.00     0.184 C 
BRANCH 127 132
HETATM  132  C   UNL     1      -3.844   6.321   2.960  1.00  0.00     0.198 C 
BRANCH 132 133
HETATM  133  O   UNL     1      -3.892   4.996   2.431  1.00  0.00    -0.398 OA
HETATM  134  H   UNL     1      -3.896   4.392   3.200  1.00  0.00     0.209 HD
ENDBRANCH 132 133
ENDBRANCH 127 132
BRANCH 130 135
HETATM  135  N   UNL     1      -3.079   7.947  -2.074  1.00  0.00     0.087 N 
HETATM  136  H   UNL     1      -2.413   8.696  -1.848  1.00  0.00     0.313 HD
HETATM  137  H   UNL     1      -3.975   8.418  -2.198  1.00  0.00     0.313 HD
ENDBRANCH 130 135
BRANCH 131 138
HETATM  138  O   UNL     1      -1.331   8.442  -0.062  1.00  0.00    -0.391 OA
HETATM  139  H   UNL     1      -0.381   8.449  -0.289  1.00  0.00     0.210 HD
ENDBRANCH 131 138
ENDBRANCH 125 126
ENDBRANCH 119 125
BRANCH 120 140
HETATM  140  N   UNL     1       1.544   4.966   1.465  1.00  0.00     0.090 N 
HETATM  141  H   UNL     1       2.199   5.748   1.417  1.00  0.00     0.313 HD
HETATM  142  H   UNL     1       0.761   5.300   0.884  1.00  0.00     0.313 HD
ENDBRANCH 120 140
BRANCH 121 143
HETATM  143  O   UNL     1       2.382   6.768   3.583  1.00  0.00    -0.391 OA
HETATM  144  H   UNL     1       1.708   7.357   3.978  1.00  0.00     0.210 HD
ENDBRANCH 121 143
ENDBRANCH 115 116
ENDBRANCH   5 115
TORSDOF 58
ENDMDL
MODEL 8
REMARK VINA RESULT:      -7.9      3.533     16.027
REMARK WARNING: 32 MAX_TORS EXCEEDED!!!
REMARK  58 active torsions:
REMARK  status: ('A' for Active; 'I' for Inactive)
REMARK    1  A    between atoms: C_1  and  O_30 
REMARK    2  A    between atoms: C_2  and  C_6 
REMARK    3  A    between atoms: C_3  and  O_9 
REMARK    4  A    between atoms: C_4  and  N_11 
REMARK    5  A    between atoms: C_5  and  O_12 
REMARK    6  A    between atoms: C_6  and  O_7 
REMARK    7  A    between atoms: N_11  and  C_118 
REMARK    8  A    between atoms: O_12  and  C_20 
REMARK    9  A    between atoms: O_14  and  C_18 
REMARK   10  A    between atoms: C_16  and  C_23 
REMARK   11  A    between atoms: O_17  and  C_23 
REMARK   12  A    between atoms: O_19  and  C_22 
REMARK   13  A    between atoms: O_19  and  C_42 
REMARK   14  A    between atoms: N_21  and  C_24 
REMARK   15  A    between atoms: O_26  and  C_29 
REMARK   16  A    between atoms: C_28  and  C_34 
REMARK   17  A    between atoms: O_30  and  C_33 
REMARK   18  A    between atoms: C_31  and  O_53 
REMARK   19  A    between atoms: N_32  and  C_35 
REMARK   20  A    between atoms: C_34  and  O_65 
REMARK   21  A    between atoms: O_37  and  C_41 
REMARK   22  A    between atoms: C_39  and  C_45 
REMARK   23  A    between atoms: O_40  and  C_45 
REMARK   24  A    between atoms: N_43  and  C_46 
REMARK   25  A    between atoms: O_48  and  C_52 
REMARK   26  A    between atoms: C_50  and  C_57 
REMARK   27  A    between atoms: O_51  and  C_57 
REMARK   28  A    between atoms: O_53  and  C_56 
REMARK   29  A    between atoms: N_55  and  C_58 
REMARK   30  A    between atoms: N_55  and  C_71 
REMARK   31  A    between atoms: C_71  and  C_73 
REMARK   32  A    between atoms: C_73  and  C_74 
REMARK   33  A    between atoms: C_73  and  N_87 
REMARK   34  A    between atoms: C_74  and  C_75 
REMARK   35  A    between atoms: C_75  and  C_76 
REMARK   36  A    between atoms: C_75  and  N_101 
REMARK   37  A    between atoms: C_76  and  C_77 
REMARK   38  A    between atoms: C_77  and  C_78 
REMARK   39  A    between atoms: C_77  and  N_91 
REMARK   40  A    between atoms: C_78  and  C_79 
REMARK   41  A    between atoms: C_79  and  C_80 
REMARK   42  A    between atoms: C_79  and  N_106 
REMARK   43  A    between atoms: C_80  and  C_81 
REMARK   44  A    between atoms: C_81  and  N_96 
REMARK   45  A    between atoms: N_113  and  C_119 
REMARK   46  A    between atoms: C_118  and  C_119 
REMARK   47  A    between atoms: C_119  and  C_126 
REMARK   48  A    between atoms: N_122  and  C_128 
REMARK   49  A    between atoms: C_124  and  C_128 
REMARK   50  A    between atoms: C_124  and  C_130 
REMARK   51  A    between atoms: N_125  and  C_135 
REMARK   52  A    between atoms: C_126  and  C_130 
REMARK   53  A    between atoms: C_128  and  C_132 
REMARK   54  A    between atoms: N_129  and  C_130 
REMARK   55  A    between atoms: C_132  and  C_137 
REMARK   56  A    between atoms: C_135  and  C_136 
REMARK   57  A    between atoms: C_136  and  C_137 
REMARK   58  A    between atoms: C_137  and  N_140 
ROOT
HETATM    1  C   UNL     1      -0.981   2.058  14.882  1.00  0.00     0.186 C 
HETATM    2  C   UNL     1       0.399   1.476  15.379  1.00  0.00     0.179 C 
HETATM    3  C   UNL     1      -2.046   0.984  14.487  1.00  0.00     0.188 C 
HETATM    4  C   UNL     1      -1.898  -0.379  15.241  1.00  0.00     0.306 C 
HETATM    5  C   UNL     1      -0.406  -0.714  14.866  1.00  0.00     0.296 C 
HETATM    6  O   UNL     1       0.436   0.056  15.700  1.00  0.00    -0.349 OA
ENDROOT
BRANCH   1   7
HETATM    7  O   UNL     1      -1.504   2.976  15.863  1.00  0.00    -0.348 OA
BRANCH   7   8
HETATM    8  C   UNL     1      -1.562   4.355  15.435  1.00  0.00     0.296 C 
HETATM    9  O   UNL     1      -1.249   4.378  14.035  1.00  0.00    -0.349 OA
HETATM   10  C   UNL     1      -1.120   5.684  13.430  1.00  0.00     0.179 C 
HETATM   11  C   UNL     1      -0.221   6.638  14.246  1.00  0.00     0.186 C 
HETATM   12  C   UNL     1       0.494   5.872  15.366  1.00  0.00     0.187 C 
HETATM   13  C   UNL     1      -0.555   5.218  16.273  1.00  0.00     0.303 C 
BRANCH  10  14
HETATM   14  C   UNL     1      -2.505   6.304  13.157  1.00  0.00     0.198 C 
BRANCH  14  15
HETATM   15  O   UNL     1      -2.864   7.260  14.153  1.00  0.00    -0.398 OA
HETATM   16  H   UNL     1      -2.039   7.596  14.550  1.00  0.00     0.209 HD
ENDBRANCH  14  15
ENDBRANCH  10  14
BRANCH  11  17
HETATM   17  O   UNL     1       0.801   7.246  13.451  1.00  0.00    -0.348 OA
BRANCH  17  18
HETATM   18  C   UNL     1       0.685   8.652  13.281  1.00  0.00     0.296 C 
HETATM   19  O   UNL     1      -0.502   9.101  13.929  1.00  0.00    -0.351 OA
HETATM   20  C   UNL     1      -1.226  10.164  13.289  1.00  0.00     0.150 C 
HETATM   21  C   UNL     1      -0.281  11.176  12.647  1.00  0.00     0.068 C 
HETATM   22  C   UNL     1       0.681  10.522  11.647  1.00  0.00     0.158 C 
HETATM   23  C   UNL     1       0.777   8.978  11.763  1.00  0.00     0.303 C 
BRANCH  20  24
HETATM   24  C   UNL     1      -2.132  10.834  14.336  1.00  0.00     0.196 C 
BRANCH  24  25
HETATM   25  O   UNL     1      -1.739  10.428  15.646  1.00  0.00    -0.398 OA
HETATM   26  H   UNL     1      -1.573   9.470  15.617  1.00  0.00     0.209 HD
ENDBRANCH  24  25
ENDBRANCH  20  24
BRANCH  22  27
HETATM   27  O   UNL     1       0.309  10.897  10.317  1.00  0.00    -0.393 OA
HETATM   28  H   UNL     1       0.874  11.667  10.100  1.00  0.00     0.210 HD
ENDBRANCH  22  27
BRANCH  23  29
HETATM   29  N   UNL     1      -0.260   8.372  10.879  1.00  0.00     0.097 N 
HETATM   30  H   UNL     1      -1.101   8.266  11.458  1.00  0.00     0.316 HD
BRANCH  29  31
HETATM   31  C   UNL     1       0.000   7.017  10.366  1.00  0.00     0.296 C 
BRANCH  31  32
HETATM   32  C   UNL     1       1.478   6.698   9.874  1.00  0.00     0.120 C 
BRANCH  32  33
HETATM   33  C   UNL     1       1.431   6.052   8.440  1.00  0.00     0.053 C 
BRANCH  33  34
HETATM   34  C   UNL     1       1.811   6.894   7.142  1.00  0.00     0.094 C 
BRANCH  34  35
HETATM   35  C   UNL     1       1.984   5.946   5.888  1.00  0.00     0.051 C 
BRANCH  35  36
HETATM   36  C   UNL     1       0.861   5.757   4.793  1.00  0.00     0.094 C 
BRANCH  36  37
HETATM   37  C   UNL     1       1.429   5.187   3.445  1.00  0.00     0.051 C 
BRANCH  37  38
HETATM   38  C   UNL     1       1.776   6.178   2.271  1.00  0.00     0.094 C 
BRANCH  38  39
HETATM   39  C   UNL     1       0.970   7.523   2.388  1.00  0.00     0.051 C 
BRANCH  39  40
HETATM   40  C   UNL     1      -0.425   7.732   1.737  1.00  0.00     0.089 C 
HETATM   41  C   UNL     1      -0.265   7.773   0.205  1.00  0.00     0.033 C 
BRANCH  40  42
HETATM   42  N   UNL     1      -1.435   6.736   2.067  1.00  0.00    -0.334 N 
HETATM   43  C   UNL     1      -2.347   6.841   3.085  1.00  0.00     0.210 A 
HETATM   44  N   UNL     1      -3.175   5.821   3.100  1.00  0.00    -0.254 NA
HETATM   45  C   UNL     1      -2.785   5.030   2.051  1.00  0.00     0.150 A 
HETATM   46  C   UNL     1      -1.706   5.577   1.394  1.00  0.00     0.082 A 
ENDBRANCH  40  42
ENDBRANCH  39  40
ENDBRANCH  38  39
BRANCH  38  47
HETATM   47  N   UNL     1       3.138   6.222   1.773  1.00  0.00    -0.345 N 
HETATM   48  C   UNL     1       4.318   6.090   2.443  1.00  0.00     0.209 A 
HETATM   49  N   UNL     1       5.353   6.271   1.652  1.00  0.00    -0.255 NA
HETATM   50  C   UNL     1       4.837   6.466   0.405  1.00  0.00     0.135 A 
HETATM   51  C   UNL     1       3.464   6.442   0.452  1.00  0.00     0.111 A 
ENDBRANCH  38  47
ENDBRANCH  37  38
ENDBRANCH  36  37
BRANCH  36  52
HETATM   52  N   UNL     1      -0.214   4.862   5.254  1.00  0.00    -0.345 N 
HETATM   53  C   UNL     1      -1.204   5.185   6.142  1.00  0.00     0.209 A 
HETATM   54  N   UNL     1      -2.063   4.204   6.298  1.00  0.00    -0.255 NA
HETATM   55  C   UNL     1      -1.614   3.198   5.496  1.00  0.00     0.135 A 
HETATM   56  C   UNL     1      -0.504   3.604   4.794  1.00  0.00     0.111 A 
ENDBRANCH  36  52
ENDBRANCH  35  36
ENDBRANCH  34  35
BRANCH  34  57
HETATM   57  N   UNL     1       1.120   8.177   7.027  1.00  0.00    -0.345 N 
HETATM   58  C   UNL     1       1.687   9.412   7.227  1.00  0.00     0.209 A 
HETATM   59  N   UNL     1       0.795  10.373   7.296  1.00  0.00    -0.255 NA
HETATM   60  C   UNL     1      -0.410   9.747   7.191  1.00  0.00     0.135 A 
HETATM   61  C   UNL     1      -0.236   8.390   7.085  1.00  0.00     0.111 A 
ENDBRANCH  34  57
ENDBRANCH  33  34
ENDBRANCH  32  33
BRANCH  32  62
HETATM   62  N   UNL     1       2.361   6.039  10.844  1.00  0.00    -0.344 N 
HETATM   63  C   UNL     1       3.529   6.466  11.419  1.00  0.00     0.111 A 
HETATM   64  C   UNL     1       3.951   5.455  12.249  1.00  0.00     0.135 A 
HETATM   65  N   UNL     1       3.105   4.396  12.171  1.00  0.00    -0.255 NA
HETATM   66  C   UNL     1       2.177   4.761  11.317  1.00  0.00     0.209 A 
ENDBRANCH  32  62
ENDBRANCH  31  32
ENDBRANCH  29  31
ENDBRANCH  23  29
ENDBRANCH  17  18
ENDBRANCH  11  17
BRANCH  12  67
HETATM   67  O   UNL     1       1.400   4.884  14.845  1.00  0.00    -0.391 OA
HETATM   68  H   UNL     1       0.903   4.340  14.203  1.00  0.00     0.210 HD
ENDBRANCH  12  67
BRANCH  13  69
HETATM   69  N   UNL     1       0.141   4.506  17.365  1.00  0.00     0.090 N 
HETATM   70  H   UNL     1       1.078   4.918  17.428  1.00  0.00     0.313 HD
HETATM   71  H   UNL     1       0.319   3.561  17.003  1.00  0.00     0.313 HD
ENDBRANCH  13  69
ENDBRANCH   7   8
ENDBRANCH   1   7
BRANCH   2  72
HETATM   72  C   UNL     1       1.498   1.803  14.332  1.00  0.00     0.198 C 
BRANCH  72  73
HETATM   73  O   UNL     1       0.950   2.448  13.188  1.00  0.00    -0.398 OA
HETATM   74  H   UNL     1      -0.019   2.378  13.239  1.00  0.00     0.209 HD
ENDBRANCH  72  73
ENDBRANCH   2  72
BRANCH   3  75
HETATM   75  O   UNL     1      -3.378   1.493  14.480  1.00  0.00    -0.391 OA
HETATM   76  H   UNL     1      -3.540   1.886  13.604  1.00  0.00     0.210 HD
ENDBRANCH   3  75
BRANCH   4  77
HETATM   77  N   UNL     1      -2.539  -0.238  16.613  1.00  0.00     0.097 N 
HETATM   78  H   UNL     1      -3.192   0.542  16.565  1.00  0.00     0.316 HD
BRANCH  77  79
HETATM   79  C   UNL     1      -3.234  -1.382  17.252  1.00  0.00     0.296 C 
BRANCH  79  80
HETATM   80  C   UNL     1      -2.668  -1.948  18.704  1.00  0.00     0.120 C 
BRANCH  80  81
HETATM   81  N   UNL     1      -1.304  -1.529  19.030  1.00  0.00    -0.344 N 
HETATM   82  C   UNL     1      -0.877  -0.465  19.781  1.00  0.00     0.111 A 
HETATM   83  C   UNL     1       0.498  -0.459  19.681  1.00  0.00     0.135 A 
HETATM   84  N   UNL     1       0.924  -1.479  18.878  1.00  0.00    -0.255 NA
HETATM   85  C   UNL     1      -0.167  -2.074  18.486  1.00  0.00     0.209 A 
ENDBRANCH  80  81
BRANCH  80  86
HETATM   86  C   UNL     1      -3.735  -1.842  19.881  1.00  0.00     0.053 C 
BRANCH  86  87
HETATM   87  C   UNL     1      -5.245  -2.438  19.926  1.00  0.00     0.094 C 
BRANCH  87  88
HETATM   88  C   UNL     1      -6.440  -1.394  19.742  1.00  0.00     0.051 C 
BRANCH  88  89
HETATM   89  C   UNL     1      -6.701  -0.691  18.312  1.00  0.00     0.094 C 
BRANCH  89  90
HETATM   90  N   UNL     1      -5.870   0.508  18.078  1.00  0.00    -0.345 N 
HETATM   91  C   UNL     1      -5.140   1.226  18.987  1.00  0.00     0.111 A 
HETATM   92  C   UNL     1      -4.689   2.340  18.315  1.00  0.00     0.135 A 
HETATM   93  N   UNL     1      -5.147   2.342  17.034  1.00  0.00    -0.255 NA
HETATM   94  C   UNL     1      -5.811   1.217  16.905  1.00  0.00     0.209 A 
ENDBRANCH  89  90
BRANCH  89  95
HETATM   95  C   UNL     1      -8.212  -0.287  18.068  1.00  0.00     0.051 C 
BRANCH  95  96
HETATM   96  C   UNL     1      -9.073   0.374  19.233  1.00  0.00     0.094 C 
BRANCH  96  97
HETATM   97  C   UNL     1      -9.948  -0.696  20.000  1.00  0.00     0.051 C 
BRANCH  97  98
HETATM   98  C   UNL     1     -11.506  -0.747  19.928  1.00  0.00     0.089 C 
HETATM   99  C   UNL     1     -12.069   0.684  20.046  1.00  0.00     0.033 C 
BRANCH  98 100
HETATM  100  N   UNL     1     -12.061  -1.353  18.723  1.00  0.00    -0.334 N 
HETATM  101  C   UNL     1     -11.547  -2.407  18.017  1.00  0.00     0.082 A 
HETATM  102  C   UNL     1     -12.371  -2.534  16.920  1.00  0.00     0.150 A 
HETATM  103  N   UNL     1     -13.359  -1.584  16.937  1.00  0.00    -0.254 NA
HETATM  104  C   UNL     1     -13.155  -0.895  18.036  1.00  0.00     0.210 A 
ENDBRANCH  98 100
ENDBRANCH  97  98
ENDBRANCH  96  97
BRANCH  96 105
HETATM  105  N   UNL     1      -8.530   1.488  19.990  1.00  0.00    -0.345 N 
HETATM  106  C   UNL     1      -8.268   2.769  19.599  1.00  0.00     0.209 A 
HETATM  107  N   UNL     1      -7.664   3.458  20.543  1.00  0.00    -0.255 NA
HETATM  108  C   UNL     1      -7.569   2.617  21.610  1.00  0.00     0.135 A 
HETATM  109  C   UNL     1      -8.098   1.389  21.296  1.00  0.00     0.111 A 
ENDBRANCH  96 105
ENDBRANCH  95  96
ENDBRANCH  89  95
ENDBRANCH  88  89
ENDBRANCH  87  88
BRANCH  87 110
HETATM  110  N   UNL     1      -5.394  -3.782  19.347  1.00  0.00    -0.345 N 
HETATM  111  C   UNL     1      -5.586  -4.109  18.030  1.00  0.00     0.111 A 
HETATM  112  C   UNL     1      -5.438  -5.472  17.942  1.00  0.00     0.135 A 
HETATM  113  N   UNL     1      -5.061  -5.989  19.144  1.00  0.00    -0.255 NA
HETATM  114  C   UNL     1      -5.010  -4.958  19.954  1.00  0.00     0.209 A 
ENDBRANCH  87 110
ENDBRANCH  86  87
ENDBRANCH  80  86
ENDBRANCH  79  80
ENDBRANCH  77  79
ENDBRANCH   4  77
BRANCH   5 115
HETATM  115  O   UNL     1      -0.107  -2.122  14.790  1.00  0.00    -0.348 OA
BRANCH 115 116
HETATM  116  C   UNL     1      -1.307  -2.977  14.688  1.00  0.00     0.186 C 
HETATM  117  C   UNL     1      -1.575  -3.464  13.238  1.00  0.00     0.179 C 
HETATM  118  O   UNL     1      -1.232  -4.847  13.040  1.00  0.00    -0.349 OA
HETATM  119  C   UNL     1      -1.939  -5.796  13.844  1.00  0.00     0.296 C 
HETATM  120  C   UNL     1      -2.089  -5.336  15.336  1.00  0.00     0.303 C 
HETATM  121  C   UNL     1      -1.145  -4.157  15.672  1.00  0.00     0.187 C 
BRANCH 117 122
HETATM  122  C   UNL     1      -3.042  -3.238  12.808  1.00  0.00     0.198 C 
BRANCH 122 123
HETATM  123  O   UNL     1      -3.275  -3.713  11.485  1.00  0.00    -0.398 OA
HETATM  124  H   UNL     1      -2.409  -3.898  11.071  1.00  0.00     0.209 HD
ENDBRANCH 122 123
ENDBRANCH 117 122
BRANCH 119 125
HETATM  125  O   UNL     1      -1.225  -7.041  13.775  1.00  0.00    -0.348 OA
BRANCH 125 126
HETATM  126  C   UNL     1      -1.806  -8.063  12.940  1.00  0.00     0.186 C 
HETATM  127  C   UNL     1      -3.354  -7.976  12.939  1.00  0.00     0.176 C 
HETATM  128  O   UNL     1      -3.930  -8.199  11.625  1.00  0.00    -0.379 OA
HETATM  129  C   UNL     1      -3.321  -9.273  10.906  1.00  0.00     0.206 C 
HETATM  130  C   UNL     1      -1.858  -8.947  10.545  1.00  0.00     0.272 C 
HETATM  131  C   UNL     1      -1.291  -7.860  11.494  1.00  0.00     0.184 C 
BRANCH 127 132
HETATM  132  C   UNL     1      -4.020  -8.946  13.927  1.00  0.00     0.198 C 
BRANCH 132 133
HETATM  133  O   UNL     1      -5.438  -8.909  13.762  1.00  0.00    -0.398 OA
HETATM  134  H   UNL     1      -5.756  -9.824  13.898  1.00  0.00     0.209 HD
ENDBRANCH 132 133
ENDBRANCH 127 132
BRANCH 130 135
HETATM  135  N   UNL     1      -1.687  -8.534   9.135  1.00  0.00     0.087 N 
HETATM  136  H   UNL     1      -0.680  -8.513   8.936  1.00  0.00     0.313 HD
HETATM  137  H   UNL     1      -2.006  -7.577   8.988  1.00  0.00     0.313 HD
ENDBRANCH 130 135
BRANCH 131 138
HETATM  138  O   UNL     1      -1.654  -6.556  10.989  1.00  0.00    -0.391 OA
HETATM  139  H   UNL     1      -0.849  -6.004  11.028  1.00  0.00     0.210 HD
ENDBRANCH 131 138
ENDBRANCH 125 126
ENDBRANCH 119 125
BRANCH 120 140
HETATM  140  N   UNL     1      -1.950  -6.455  16.300  1.00  0.00     0.090 N 
HETATM  141  H   UNL     1      -2.850  -6.610  16.757  1.00  0.00     0.313 HD
HETATM  142  H   UNL     1      -1.376  -6.077  17.068  1.00  0.00     0.313 HD
ENDBRANCH 120 140
BRANCH 121 143
HETATM  143  O   UNL     1       0.213  -4.595  15.754  1.00  0.00    -0.391 OA
HETATM  144  H   UNL     1       0.654  -4.287  14.936  1.00  0.00     0.210 HD
ENDBRANCH 121 143
ENDBRANCH 115 116
ENDBRANCH   5 115
TORSDOF 58
ENDMDL
MODEL 9
REMARK VINA RESULT:      -7.8      3.908     15.742
REMARK WARNING: 32 MAX_TORS EXCEEDED!!!
REMARK  58 active torsions:
REMARK  status: ('A' for Active; 'I' for Inactive)
REMARK    1  A    between atoms: C_1  and  O_30 
REMARK    2  A    between atoms: C_2  and  C_6 
REMARK    3  A    between atoms: C_3  and  O_9 
REMARK    4  A    between atoms: C_4  and  N_11 
REMARK    5  A    between atoms: C_5  and  O_12 
REMARK    6  A    between atoms: C_6  and  O_7 
REMARK    7  A    between atoms: N_11  and  C_118 
REMARK    8  A    between atoms: O_12  and  C_20 
REMARK    9  A    between atoms: O_14  and  C_18 
REMARK   10  A    between atoms: C_16  and  C_23 
REMARK   11  A    between atoms: O_17  and  C_23 
REMARK   12  A    between atoms: O_19  and  C_22 
REMARK   13  A    between atoms: O_19  and  C_42 
REMARK   14  A    between atoms: N_21  and  C_24 
REMARK   15  A    between atoms: O_26  and  C_29 
REMARK   16  A    between atoms: C_28  and  C_34 
REMARK   17  A    between atoms: O_30  and  C_33 
REMARK   18  A    between atoms: C_31  and  O_53 
REMARK   19  A    between atoms: N_32  and  C_35 
REMARK   20  A    between atoms: C_34  and  O_65 
REMARK   21  A    between atoms: O_37  and  C_41 
REMARK   22  A    between atoms: C_39  and  C_45 
REMARK   23  A    between atoms: O_40  and  C_45 
REMARK   24  A    between atoms: N_43  and  C_46 
REMARK   25  A    between atoms: O_48  and  C_52 
REMARK   26  A    between atoms: C_50  and  C_57 
REMARK   27  A    between atoms: O_51  and  C_57 
REMARK   28  A    between atoms: O_53  and  C_56 
REMARK   29  A    between atoms: N_55  and  C_58 
REMARK   30  A    between atoms: N_55  and  C_71 
REMARK   31  A    between atoms: C_71  and  C_73 
REMARK   32  A    between atoms: C_73  and  C_74 
REMARK   33  A    between atoms: C_73  and  N_87 
REMARK   34  A    between atoms: C_74  and  C_75 
REMARK   35  A    between atoms: C_75  and  C_76 
REMARK   36  A    between atoms: C_75  and  N_101 
REMARK   37  A    between atoms: C_76  and  C_77 
REMARK   38  A    between atoms: C_77  and  C_78 
REMARK   39  A    between atoms: C_77  and  N_91 
REMARK   40  A    between atoms: C_78  and  C_79 
REMARK   41  A    between atoms: C_79  and  C_80 
REMARK   42  A    between atoms: C_79  and  N_106 
REMARK   43  A    between atoms: C_80  and  C_81 
REMARK   44  A    between atoms: C_81  and  N_96 
REMARK   45  A    between atoms: N_113  and  C_119 
REMARK   46  A    between atoms: C_118  and  C_119 
REMARK   47  A    between atoms: C_119  and  C_126 
REMARK   48  A    between atoms: N_122  and  C_128 
REMARK   49  A    between atoms: C_124  and  C_128 
REMARK   50  A    between atoms: C_124  and  C_130 
REMARK   51  A    between atoms: N_125  and  C_135 
REMARK   52  A    between atoms: C_126  and  C_130 
REMARK   53  A    between atoms: C_128  and  C_132 
REMARK   54  A    between atoms: N_129  and  C_130 
REMARK   55  A    between atoms: C_132  and  C_137 
REMARK   56  A    between atoms: C_135  and  C_136 
REMARK   57  A    between atoms: C_136  and  C_137 
REMARK   58  A    between atoms: C_137  and  N_140 
ROOT
HETATM    1  C   UNL     1       0.251   7.421   9.145  1.00  0.00     0.186 C 
HETATM    2  C   UNL     1       0.965   8.430   8.163  1.00  0.00     0.179 C 
HETATM    3  C   UNL     1       0.595   5.916   8.908  1.00  0.00     0.188 C 
HETATM    4  C   UNL     1       2.007   5.667   8.281  1.00  0.00     0.306 C 
HETATM    5  C   UNL     1       1.870   6.556   6.989  1.00  0.00     0.296 C 
HETATM    6  O   UNL     1       2.065   7.904   7.366  1.00  0.00    -0.349 OA
ENDROOT
BRANCH   1   7
HETATM    7  O   UNL     1       0.509   7.807  10.510  1.00  0.00    -0.348 OA
BRANCH   7   8
HETATM    8  C   UNL     1      -0.245   8.952  10.970  1.00  0.00     0.296 C 
HETATM    9  O   UNL     1       0.694  10.008  11.213  1.00  0.00    -0.349 OA
HETATM   10  C   UNL     1       0.162  11.212  11.811  1.00  0.00     0.179 C 
HETATM   11  C   UNL     1      -0.731  10.928  13.038  1.00  0.00     0.186 C 
HETATM   12  C   UNL     1      -0.628   9.454  13.446  1.00  0.00     0.187 C 
HETATM   13  C   UNL     1      -1.051   8.576  12.263  1.00  0.00     0.303 C 
BRANCH  10  14
HETATM   14  C   UNL     1      -0.571  12.070  10.761  1.00  0.00     0.198 C 
BRANCH  14  15
HETATM   15  O   UNL     1       0.291  12.448   9.690  1.00  0.00    -0.398 OA
HETATM   16  H   UNL     1      -0.171  13.128   9.165  1.00  0.00     0.209 HD
ENDBRANCH  14  15
ENDBRANCH  10  14
BRANCH  11  17
HETATM   17  O   UNL     1      -0.352  11.696  14.184  1.00  0.00    -0.348 OA
BRANCH  17  18
HETATM   18  C   UNL     1      -1.412  12.035  15.068  1.00  0.00     0.296 C 
HETATM   19  O   UNL     1      -2.623  11.465  14.580  1.00  0.00    -0.351 OA
HETATM   20  C   UNL     1      -3.820  12.240  14.758  1.00  0.00     0.150 C 
HETATM   21  C   UNL     1      -3.812  12.983  16.090  1.00  0.00     0.068 C 
HETATM   22  C   UNL     1      -2.579  13.882  16.249  1.00  0.00     0.158 C 
HETATM   23  C   UNL     1      -1.430  13.580  15.250  1.00  0.00     0.303 C 
BRANCH  20  24
HETATM   24  C   UNL     1      -5.029  11.296  14.653  1.00  0.00     0.196 C 
BRANCH  24  25
HETATM   25  O   UNL     1      -4.623   9.957  14.936  1.00  0.00    -0.398 OA
HETATM   26  H   UNL     1      -4.873   9.764  15.855  1.00  0.00     0.209 HD
ENDBRANCH  24  25
ENDBRANCH  20  24
BRANCH  22  27
HETATM   27  O   UNL     1      -2.975  15.253  16.148  1.00  0.00    -0.393 OA
HETATM   28  H   UNL     1      -2.758  15.515  15.229  1.00  0.00     0.210 HD
ENDBRANCH  22  27
BRANCH  23  29
HETATM   29  N   UNL     1      -1.642  14.401  14.024  1.00  0.00     0.097 N 
HETATM   30  H   UNL     1      -1.907  13.743  13.282  1.00  0.00     0.316 HD
BRANCH  29  31
HETATM   31  C   UNL     1      -0.473  15.111  13.478  1.00  0.00     0.296 C 
BRANCH  31  32
HETATM   32  C   UNL     1      -0.235  16.603  13.973  1.00  0.00     0.120 C 
BRANCH  32  33
HETATM   33  C   UNL     1       0.569  16.590  15.327  1.00  0.00     0.053 C 
BRANCH  33  34
HETATM   34  C   UNL     1       2.005  15.908  15.429  1.00  0.00     0.094 C 
BRANCH  34  35
HETATM   35  C   UNL     1       3.146  16.948  15.089  1.00  0.00     0.051 C 
BRANCH  35  36
HETATM   36  C   UNL     1       4.572  16.517  14.563  1.00  0.00     0.094 C 
BRANCH  36  37
HETATM   37  C   UNL     1       4.534  15.161  13.772  1.00  0.00     0.051 C 
BRANCH  37  38
HETATM   38  C   UNL     1       5.162  13.869  14.418  1.00  0.00     0.094 C 
BRANCH  38  39
HETATM   39  C   UNL     1       5.881  14.191  15.779  1.00  0.00     0.051 C 
BRANCH  39  40
HETATM   40  C   UNL     1       7.375  13.860  16.045  1.00  0.00     0.089 C 
HETATM   41  C   UNL     1       7.972  13.187  14.793  1.00  0.00     0.033 C 
BRANCH  40  42
HETATM   42  N   UNL     1       8.221  14.989  16.406  1.00  0.00    -0.334 N 
HETATM   43  C   UNL     1       8.122  16.251  15.880  1.00  0.00     0.210 A 
HETATM   44  N   UNL     1       8.973  17.078  16.445  1.00  0.00    -0.254 NA
HETATM   45  C   UNL     1       9.644  16.323  17.371  1.00  0.00     0.150 A 
HETATM   46  C   UNL     1       9.194  15.021  17.366  1.00  0.00     0.082 A 
ENDBRANCH  40  42
ENDBRANCH  39  40
ENDBRANCH  38  39
BRANCH  38  47
HETATM   47  N   UNL     1       4.459  12.607  14.282  1.00  0.00    -0.345 N 
HETATM   48  C   UNL     1       3.484  12.240  13.402  1.00  0.00     0.209 A 
HETATM   49  N   UNL     1       3.036  11.027  13.647  1.00  0.00    -0.255 NA
HETATM   50  C   UNL     1       3.786  10.557  14.683  1.00  0.00     0.135 A 
HETATM   51  C   UNL     1       4.676  11.517  15.098  1.00  0.00     0.111 A 
ENDBRANCH  38  47
ENDBRANCH  37  38
ENDBRANCH  36  37
BRANCH  36  52
HETATM   52  N   UNL     1       5.173  17.540  13.692  1.00  0.00    -0.345 N 
HETATM   53  C   UNL     1       5.781  18.694  14.108  1.00  0.00     0.209 A 
HETATM   54  N   UNL     1       6.289  19.371  13.104  1.00  0.00    -0.255 NA
HETATM   55  C   UNL     1       5.991  18.645  11.989  1.00  0.00     0.135 A 
HETATM   56  C   UNL     1       5.353  17.478  12.335  1.00  0.00     0.111 A 
ENDBRANCH  36  52
ENDBRANCH  35  36
ENDBRANCH  34  35
BRANCH  34  57
HETATM   57  N   UNL     1       2.150  14.964  16.536  1.00  0.00    -0.345 N 
HETATM   58  C   UNL     1       2.897  15.170  17.670  1.00  0.00     0.209 A 
HETATM   59  N   UNL     1       3.046  14.076  18.382  1.00  0.00    -0.255 NA
HETATM   60  C   UNL     1       2.421  13.100  17.669  1.00  0.00     0.135 A 
HETATM   61  C   UNL     1       1.915  13.611  16.500  1.00  0.00     0.111 A 
ENDBRANCH  34  57
ENDBRANCH  33  34
ENDBRANCH  32  33
BRANCH  32  62
HETATM   62  N   UNL     1      -1.396  17.500  13.927  1.00  0.00    -0.344 N 
HETATM   63  C   UNL     1      -2.263  17.783  12.905  1.00  0.00     0.111 A 
HETATM   64  C   UNL     1      -3.163  18.697  13.395  1.00  0.00     0.135 A 
HETATM   65  N   UNL     1      -2.854  19.025  14.676  1.00  0.00    -0.255 NA
HETATM   66  C   UNL     1      -1.790  18.313  14.964  1.00  0.00     0.209 A 
ENDBRANCH  32  62
ENDBRANCH  31  32
ENDBRANCH  29  31
ENDBRANCH  23  29
ENDBRANCH  17  18
ENDBRANCH  11  17
BRANCH  12  67
HETATM   67  O   UNL     1       0.699   9.111  13.883  1.00  0.00    -0.391 OA
HETATM   68  H   UNL     1       0.648   8.235  14.314  1.00  0.00     0.210 HD
ENDBRANCH  12  67
BRANCH  13  69
HETATM   69  N   UNL     1      -0.975   7.158  12.673  1.00  0.00     0.090 N 
HETATM   70  H   UNL     1      -1.817   6.973  13.228  1.00  0.00     0.313 HD
HETATM   71  H   UNL     1      -0.217   7.116  13.365  1.00  0.00     0.313 HD
ENDBRANCH  13  69
ENDBRANCH   7   8
ENDBRANCH   1   7
BRANCH   2  72
HETATM   72  C   UNL     1      -0.097   9.071   7.229  1.00  0.00     0.198 C 
BRANCH  72  73
HETATM   73  O   UNL     1      -0.842  10.077   7.904  1.00  0.00    -0.398 OA
HETATM   74  H   UNL     1      -0.222  10.768   8.193  1.00  0.00     0.209 HD
ENDBRANCH  72  73
ENDBRANCH   2  72
BRANCH   3  75
HETATM   75  O   UNL     1       0.319   5.092  10.039  1.00  0.00    -0.391 OA
HETATM   76  H   UNL     1      -0.538   4.655   9.885  1.00  0.00     0.210 HD
ENDBRANCH   3  75
BRANCH   4  77
HETATM   77  N   UNL     1       3.042   5.735   9.393  1.00  0.00     0.097 N 
HETATM   78  H   UNL     1       2.618   6.233  10.174  1.00  0.00     0.316 HD
BRANCH  77  79
HETATM   79  C   UNL     1       3.676   4.502   9.922  1.00  0.00     0.296 C 
BRANCH  79  80
HETATM   80  C   UNL     1       3.368   4.058  11.490  1.00  0.00     0.120 C 
BRANCH  80  81
HETATM   81  N   UNL     1       3.180   5.179  12.413  1.00  0.00    -0.344 N 
HETATM   82  C   UNL     1       4.117   5.918  13.086  1.00  0.00     0.111 A 
HETATM   83  C   UNL     1       3.409   6.773  13.904  1.00  0.00     0.135 A 
HETATM   84  N   UNL     1       2.066   6.567  13.763  1.00  0.00    -0.255 NA
HETATM   85  C   UNL     1       1.965   5.599  12.897  1.00  0.00     0.209 A 
ENDBRANCH  80  81
BRANCH  80  86
HETATM   86  C   UNL     1       2.323   2.864  11.615  1.00  0.00     0.053 C 
BRANCH  86  87
HETATM   87  C   UNL     1       1.577   2.317  12.950  1.00  0.00     0.094 C 
BRANCH  87  88
HETATM   88  C   UNL     1       0.154   1.620  12.749  1.00  0.00     0.051 C 
BRANCH  88  89
HETATM   89  C   UNL     1      -0.702   1.123  14.024  1.00  0.00     0.094 C 
BRANCH  89  90
HETATM   90  N   UNL     1      -0.785  -0.347  14.150  1.00  0.00    -0.345 N 
HETATM   91  C   UNL     1      -0.119  -1.163  15.024  1.00  0.00     0.111 A 
HETATM   92  C   UNL     1      -0.402  -2.451  14.630  1.00  0.00     0.135 A 
HETATM   93  N   UNL     1      -1.195  -2.448  13.525  1.00  0.00    -0.255 NA
HETATM   94  C   UNL     1      -1.444  -1.182  13.285  1.00  0.00     0.209 A 
ENDBRANCH  89  90
BRANCH  89  95
HETATM   95  C   UNL     1      -2.178   1.695  14.062  1.00  0.00     0.051 C 
BRANCH  95  96
HETATM   96  C   UNL     1      -2.821   2.191  15.432  1.00  0.00     0.094 C 
BRANCH  96  97
HETATM   97  C   UNL     1      -2.870   3.768  15.524  1.00  0.00     0.051 C 
BRANCH  97  98
HETATM   98  C   UNL     1      -1.792   4.623  16.261  1.00  0.00     0.089 C 
HETATM   99  C   UNL     1      -0.439   4.472  15.535  1.00  0.00     0.033 C 
BRANCH  98 100
HETATM  100  N   UNL     1      -2.087   6.047  16.374  1.00  0.00    -0.334 N 
HETATM  101  C   UNL     1      -1.189   7.080  16.356  1.00  0.00     0.082 A 
HETATM  102  C   UNL     1      -1.942   8.208  16.593  1.00  0.00     0.150 A 
HETATM  103  N   UNL     1      -3.265   7.888  16.764  1.00  0.00    -0.254 NA
HETATM  104  C   UNL     1      -3.324   6.585  16.616  1.00  0.00     0.210 A 
ENDBRANCH  98 100
ENDBRANCH  97  98
ENDBRANCH  96  97
BRANCH  96 105
HETATM  105  N   UNL     1      -3.900   1.433  16.041  1.00  0.00    -0.345 N 
HETATM  106  C   UNL     1      -5.029   1.869  16.672  1.00  0.00     0.209 A 
HETATM  107  N   UNL     1      -5.712   0.876  17.199  1.00  0.00    -0.255 NA
HETATM  108  C   UNL     1      -5.037  -0.258  16.860  1.00  0.00     0.135 A 
HETATM  109  C   UNL     1      -3.910   0.058  16.142  1.00  0.00     0.111 A 
ENDBRANCH  96 105
ENDBRANCH  95  96
ENDBRANCH  89  95
ENDBRANCH  88  89
ENDBRANCH  87  88
BRANCH  87 110
HETATM  110  N   UNL     1       2.477   1.786  13.984  1.00  0.00    -0.345 N 
HETATM  111  C   UNL     1       2.795   2.355  15.190  1.00  0.00     0.111 A 
HETATM  112  C   UNL     1       3.479   1.400  15.902  1.00  0.00     0.135 A 
HETATM  113  N   UNL     1       3.509   0.224  15.218  1.00  0.00    -0.255 NA
HETATM  114  C   UNL     1       2.877   0.471  14.094  1.00  0.00     0.209 A 
ENDBRANCH  87 110
ENDBRANCH  86  87
ENDBRANCH  80  86
ENDBRANCH  79  80
ENDBRANCH  77  79
ENDBRANCH   4  77
BRANCH   5 115
HETATM  115  O   UNL     1       2.637   6.096   5.858  1.00  0.00    -0.348 OA
BRANCH 115 116
HETATM  116  C   UNL     1       1.891   5.186   4.968  1.00  0.00     0.186 C 
HETATM  117  C   UNL     1       0.352   5.352   5.093  1.00  0.00     0.179 C 
HETATM  118  O   UNL     1      -0.227   6.051   3.976  1.00  0.00    -0.349 OA
HETATM  119  C   UNL     1      -0.064   5.439   2.693  1.00  0.00     0.296 C 
HETATM  120  C   UNL     1       1.382   4.873   2.470  1.00  0.00     0.303 C 
HETATM  121  C   UNL     1       2.380   5.415   3.521  1.00  0.00     0.187 C 
BRANCH 117 122
HETATM  122  C   UNL     1      -0.369   3.998   5.275  1.00  0.00     0.198 C 
BRANCH 122 123
HETATM  123  O   UNL     1      -0.978   3.902   6.560  1.00  0.00    -0.398 OA
HETATM  124  H   UNL     1      -1.900   3.601   6.437  1.00  0.00     0.209 HD
ENDBRANCH 122 123
ENDBRANCH 117 122
BRANCH 119 125
HETATM  125  O   UNL     1      -0.372   6.429   1.698  1.00  0.00    -0.348 OA
BRANCH 125 126
HETATM  126  C   UNL     1      -1.719   6.417   1.184  1.00  0.00     0.186 C 
HETATM  127  C   UNL     1      -2.654   7.315   2.034  1.00  0.00     0.176 C 
HETATM  128  O   UNL     1      -3.584   8.083   1.227  1.00  0.00    -0.379 OA
HETATM  129  C   UNL     1      -4.166   7.338   0.156  1.00  0.00     0.206 C 
HETATM  130  C   UNL     1      -3.107   6.945  -0.894  1.00  0.00     0.272 C 
HETATM  131  C   UNL     1      -1.689   6.957  -0.268  1.00  0.00     0.184 C 
BRANCH 127 132
HETATM  132  C   UNL     1      -3.459   6.533   3.084  1.00  0.00     0.198 C 
BRANCH 132 133
HETATM  133  O   UNL     1      -3.270   5.131   2.894  1.00  0.00    -0.398 OA
HETATM  134  H   UNL     1      -2.620   5.034   2.170  1.00  0.00     0.209 HD
ENDBRANCH 132 133
ENDBRANCH 127 132
BRANCH 130 135
HETATM  135  N   UNL     1      -3.141   7.801  -2.099  1.00  0.00     0.087 N 
HETATM  136  H   UNL     1      -3.709   8.628  -1.878  1.00  0.00     0.313 HD
HETATM  137  H   UNL     1      -3.629   7.341  -2.867  1.00  0.00     0.313 HD
ENDBRANCH 130 135
BRANCH 131 138
HETATM  138  O   UNL     1      -1.164   8.302  -0.314  1.00  0.00    -0.391 OA
HETATM  139  H   UNL     1      -1.893   8.880  -0.611  1.00  0.00     0.210 HD
ENDBRANCH 131 138
ENDBRANCH 125 126
ENDBRANCH 119 125
BRANCH 120 140
HETATM  140  N   UNL     1       1.869   5.071   1.083  1.00  0.00     0.090 N 
HETATM  141  H   UNL     1       2.025   4.157   0.654  1.00  0.00     0.313 HD
HETATM  142  H   UNL     1       2.829   5.432   1.185  1.00  0.00     0.313 HD
ENDBRANCH 120 140
BRANCH 121 143
HETATM  143  O   UNL     1       2.685   6.790   3.277  1.00  0.00    -0.391 OA
HETATM  144  H   UNL     1       2.352   6.993   2.379  1.00  0.00     0.210 HD
ENDBRANCH 121 143
ENDBRANCH 115 116
ENDBRANCH   5 115
TORSDOF 58
ENDMDL
