MODEL 1
REMARK VINA RESULT:      -7.9      0.000      0.000
REMARK WARNING: 32 MAX_TORS EXCEEDED!!!
REMARK  60 active torsions:
REMARK  status: ('A' for Active; 'I' for Inactive)
REMARK    1  A    between atoms: C_1  and  O_30 
REMARK    2  A    between atoms: C_3  and  O_9 
REMARK    3  A    between atoms: C_4  and  O_11 
REMARK    4  A    between atoms: O_11  and  C_106 
REMARK    5  A    between atoms: O_14  and  C_18 
REMARK    6  A    between atoms: O_19  and  C_22 
REMARK    7  A    between atoms: O_19  and  C_42 
REMARK    8  A    between atoms: O_21  and  C_24 
REMARK    9  A    between atoms: O_26  and  C_29 
REMARK   10  A    between atoms: C_28  and  C_34 
REMARK   11  A    between atoms: O_30  and  C_33 
REMARK   12  A    between atoms: C_31  and  O_53 
REMARK   13  A    between atoms: O_32  and  C_35 
REMARK   14  A    between atoms: C_34  and  O_59 
REMARK   15  A    between atoms: O_37  and  C_41 
REMARK   16  A    between atoms: C_39  and  C_45 
REMARK   17  A    between atoms: O_40  and  C_45 
REMARK   18  A    between atoms: O_40  and  C_157 
REMARK   19  A    between atoms: O_43  and  C_46 
REMARK   20  A    between atoms: O_48  and  C_52 
REMARK   21  A    between atoms: C_50  and  C_57 
REMARK   22  A    between atoms: O_51  and  C_57 
REMARK   23  A    between atoms: O_51  and  C_135 
REMARK   24  A    between atoms: O_53  and  C_56 
REMARK   25  A    between atoms: O_55  and  C_58 
REMARK   26  A    between atoms: O_55  and  C_60 
REMARK   27  A    between atoms: O_59  and  C_141 
REMARK   28  A    between atoms: C_60  and  C_61 
REMARK   29  A    between atoms: C_61  and  C_62 
REMARK   30  A    between atoms: C_61  and  N_75 
REMARK   31  A    between atoms: C_62  and  C_63 
REMARK   32  A    between atoms: C_63  and  C_64 
REMARK   33  A    between atoms: C_63  and  N_89 
REMARK   34  A    between atoms: C_64  and  C_65 
REMARK   35  A    between atoms: C_65  and  C_66 
REMARK   36  A    between atoms: C_65  and  N_79 
REMARK   37  A    between atoms: C_66  and  C_67 
REMARK   38  A    between atoms: C_67  and  C_68 
REMARK   39  A    between atoms: C_67  and  N_94 
REMARK   40  A    between atoms: C_68  and  C_69 
REMARK   41  A    between atoms: C_69  and  N_84 
REMARK   42  A    between atoms: N_101  and  C_107 
REMARK   43  A    between atoms: C_106  and  C_107 
REMARK   44  A    between atoms: C_107  and  C_114 
REMARK   45  A    between atoms: N_110  and  C_116 
REMARK   46  A    between atoms: C_112  and  C_116 
REMARK   47  A    between atoms: C_112  and  C_118 
REMARK   48  A    between atoms: N_113  and  C_123 
REMARK   49  A    between atoms: C_114  and  C_118 
REMARK   50  A    between atoms: C_116  and  C_120 
REMARK   51  A    between atoms: N_117  and  C_118 
REMARK   52  A    between atoms: C_120  and  C_125 
REMARK   53  A    between atoms: C_123  and  C_124 
REMARK   54  A    between atoms: C_124  and  C_125 
REMARK   55  A    between atoms: C_125  and  N_128 
REMARK   56  A    between atoms: C_135  and  C_136 
REMARK   57  A    between atoms: C_136  and  O_138 
REMARK   58  A    between atoms: C_141  and  C_142 
REMARK   59  A    between atoms: C_142  and  O_143 
REMARK   60  A    between atoms: C_157  and  O_158 
ROOT
HETATM    1  C   UNL     1       2.005   1.020  13.809  1.00  0.00     0.187 C 
HETATM    2  C   UNL     1       1.635   1.501  15.270  1.00  0.00     0.180 C 
HETATM    3  C   UNL     1       1.649  -0.476  13.522  1.00  0.00     0.183 C 
HETATM    4  C   UNL     1       0.343  -0.937  14.243  1.00  0.00     0.208 C 
HETATM    5  C   UNL     1       0.653  -0.589  15.728  1.00  0.00     0.292 C 
HETATM    6  C   UNL     1       2.847   1.570  16.258  1.00  0.00     0.203 C 
HETATM    7  O   UNL     1       2.619   2.107  17.563  1.00  0.00    -0.370 OA
HETATM    8  O   UNL     1       0.523   0.814  15.858  1.00  0.00    -0.348 OA
HETATM    9  O   UNL     1      -0.166  -1.285  16.681  1.00  0.00    -0.348 OA
HETATM   10  O   UNL     1       0.090  -2.658  20.001  1.00  0.00    -0.348 OA
HETATM   11  C   UNL     1       0.497  -1.653  19.077  1.00  0.00     0.180 C 
HETATM   12  O   UNL     1       1.709  -0.652  20.931  1.00  0.00    -0.304 OA
HETATM   13  C   UNL     1       0.174  -3.621  17.475  1.00  0.00     0.183 C 
HETATM   14  C   UNL     1       0.583  -2.136  17.590  1.00  0.00     0.187 C 
HETATM   15  C   UNL     1       0.761  -3.913  19.955  1.00  0.00     0.292 C 
HETATM   16  C   UNL     1       1.789  -0.984  19.584  1.00  0.00     0.215 C 
HETATM   17  C   UNL     1       1.044  -4.390  18.501  1.00  0.00     0.204 C 
HETATM   18 NA   UNL     1      -1.584   3.646  18.230  1.00  0.00     0.050 Na
HETATM   19  C   UNL     1       1.321   2.623  17.742  1.00  0.00     0.261 C 
HETATM   20  C   UNL     1       1.324   3.914  18.498  1.00  0.00     0.310 C 
HETATM   21  O   UNL     1       0.152   4.516  18.779  1.00  0.00    -0.185 OA
HETATM   22  O   UNL     1       2.369   4.423  18.871  1.00  0.00    -0.261 OA
HETATM   23 NA   UNL     1      -1.212   2.212  20.941  1.00  0.00     0.051 Na
HETATM   24  C   UNL     1      -0.333  -0.334  22.056  1.00  0.00     0.146 C 
HETATM   25  C   UNL     1       0.923   0.294  21.520  1.00  0.00     0.314 C 
HETATM   26  O   UNL     1       0.536   1.252  20.659  1.00  0.00    -0.172 OA
HETATM   27  O   UNL     1       1.497   0.771  22.485  1.00  0.00    -0.242 OA
ENDROOT
BRANCH   1  28
HETATM   28  O   UNL     1       1.368   1.863  12.855  1.00  0.00    -0.348 OA
BRANCH  28  29
HETATM   29  C   UNL     1       1.141   3.202  13.328  1.00  0.00     0.292 C 
HETATM   30  O   UNL     1      -0.262   3.435  13.395  1.00  0.00    -0.348 OA
HETATM   31  C   UNL     1      -0.637   4.761  13.809  1.00  0.00     0.180 C 
HETATM   32  C   UNL     1       0.277   5.905  13.257  1.00  0.00     0.187 C 
HETATM   33  C   UNL     1       1.010   5.416  12.009  1.00  0.00     0.183 C 
HETATM   34  C   UNL     1       1.884   4.207  12.395  1.00  0.00     0.204 C 
BRANCH  31  35
HETATM   35  C   UNL     1      -0.809   4.876  15.349  1.00  0.00     0.203 C 
BRANCH  35  36
HETATM   36  O   UNL     1      -1.664   3.904  15.911  1.00  0.00    -0.370 OA
BRANCH  36  37
HETATM   37  C   UNL     1      -2.999   4.197  15.608  1.00  0.00     0.262 C 
BRANCH  37  38
HETATM   38  C   UNL     1      -3.728   2.914  15.382  1.00  0.00     0.321 C 
HETATM   39  O   UNL     1      -4.800   2.711  15.931  1.00  0.00    -0.260 OA
BRANCH  38  40
HETATM   40  O   UNL     1      -3.219   1.989  14.549  1.00  0.00    -0.147 OA
HETATM   41 NA   UNL     1      -1.228   1.714  14.453  1.00  0.00     0.000 Na
ENDBRANCH  38  40
ENDBRANCH  37  38
ENDBRANCH  36  37
ENDBRANCH  35  36
ENDBRANCH  31  35
BRANCH  32  42
HETATM   42  O   UNL     1      -0.509   7.024  12.861  1.00  0.00    -0.348 OA
BRANCH  42  43
HETATM   43  C   UNL     1      -0.202   8.242  13.506  1.00  0.00     0.292 C 
HETATM   44  O   UNL     1      -1.435   8.865  13.877  1.00  0.00    -0.351 OA
HETATM   45  C   UNL     1      -1.590  10.210  13.456  1.00  0.00     0.151 C 
HETATM   46  C   UNL     1      -0.356  11.056  13.844  1.00  0.00     0.068 C 
HETATM   47  C   UNL     1       0.970  10.445  13.313  1.00  0.00     0.154 C 
HETATM   48  C   UNL     1       0.755   9.095  12.594  1.00  0.00     0.205 C 
BRANCH  45  49
HETATM   49  C   UNL     1      -2.848  10.796  14.131  1.00  0.00     0.200 C 
BRANCH  49  50
HETATM   50  O   UNL     1      -3.386  11.903  13.430  1.00  0.00    -0.379 OA
BRANCH  50  51
HETATM   51  C   UNL     1      -3.982  12.854  14.291  1.00  0.00     0.281 C 
BRANCH  51  52
HETATM   52  C   UNL     1      -4.472  14.025  13.486  1.00  0.00     0.313 C 
HETATM   53  O   UNL     1      -4.219  15.170  13.830  1.00  0.00    -0.260 OA
BRANCH  52  54
HETATM   54  O   UNL     1      -5.201  13.817  12.374  1.00  0.00    -0.148 OA
HETATM   55 NA   UNL     1      -7.166  13.398  12.492  1.00  0.00     0.000 Na
ENDBRANCH  52  54
ENDBRANCH  51  52
ENDBRANCH  50  51
ENDBRANCH  49  50
ENDBRANCH  45  49
BRANCH  47  56
HETATM   56  O   UNL     1       1.680  11.351  12.505  1.00  0.00    -0.393 OA
HETATM   57  H   UNL     1       2.250  11.907  13.102  1.00  0.00     0.210 HD
ENDBRANCH  47  56
BRANCH  48  58
HETATM   58  O   UNL     1       0.244   9.374  11.297  1.00  0.00    -0.376 OA
BRANCH  58  59
HETATM   59  C   UNL     1       0.995   8.824  10.225  1.00  0.00     0.194 C 
BRANCH  59  60
HETATM   60  C   UNL     1       0.394   9.100   8.810  1.00  0.00     0.116 C 
BRANCH  60  61
HETATM   61  C   UNL     1       1.442   8.768   7.686  1.00  0.00     0.053 C 
BRANCH  61  62
HETATM   62  C   UNL     1       1.267   7.492   6.777  1.00  0.00     0.094 C 
BRANCH  62  63
HETATM   63  C   UNL     1       1.185   7.896   5.249  1.00  0.00     0.051 C 
BRANCH  63  64
HETATM   64  C   UNL     1       0.598   6.888   4.205  1.00  0.00     0.094 C 
BRANCH  64  65
HETATM   65  C   UNL     1      -0.793   7.346   3.634  1.00  0.00     0.051 C 
BRANCH  65  66
HETATM   66  C   UNL     1      -1.453   6.246   2.757  1.00  0.00     0.094 C 
BRANCH  66  67
HETATM   67  C   UNL     1      -2.584   5.407   3.440  1.00  0.00     0.051 C 
BRANCH  67  68
HETATM   68  C   UNL     1      -2.243   4.411   4.593  1.00  0.00     0.089 C 
HETATM   69  C   UNL     1      -0.988   3.605   4.215  1.00  0.00     0.033 C 
BRANCH  68  70
HETATM   70  N   UNL     1      -2.031   5.008   5.902  1.00  0.00    -0.334 N 
HETATM   71  C   UNL     1      -2.791   6.062   6.445  1.00  0.00     0.210 A 
HETATM   72  N   UNL     1      -2.378   6.385   7.609  1.00  0.00    -0.254 NA
HETATM   73  C   UNL     1      -1.296   5.525   7.902  1.00  0.00     0.150 A 
HETATM   74  C   UNL     1      -1.079   4.690   6.888  1.00  0.00     0.082 A 
ENDBRANCH  68  70
ENDBRANCH  67  68
ENDBRANCH  66  67
BRANCH  66  75
HETATM   75  N   UNL     1      -1.846   6.749   1.431  1.00  0.00    -0.345 N 
HETATM   76  C   UNL     1      -1.287   6.478   0.232  1.00  0.00     0.209 A 
HETATM   77  N   UNL     1      -1.922   7.107  -0.777  1.00  0.00    -0.255 NA
HETATM   78  C   UNL     1      -2.919   7.794  -0.185  1.00  0.00     0.135 A 
HETATM   79  C   UNL     1      -2.878   7.573   1.172  1.00  0.00     0.111 A 
ENDBRANCH  66  75
ENDBRANCH  65  66
ENDBRANCH  64  65
BRANCH  64  80
HETATM   80  N   UNL     1       1.514   6.710   3.059  1.00  0.00    -0.345 N 
HETATM   81  C   UNL     1       2.243   5.627   2.717  1.00  0.00     0.209 A 
HETATM   82  N   UNL     1       2.938   5.819   1.577  1.00  0.00    -0.255 NA
HETATM   83  C   UNL     1       2.624   7.068   1.182  1.00  0.00     0.135 A 
HETATM   84  C   UNL     1       1.743   7.615   2.084  1.00  0.00     0.111 A 
ENDBRANCH  64  80
ENDBRANCH  63  64
ENDBRANCH  62  63
BRANCH  62  85
HETATM   85  N   UNL     1       2.165   6.375   7.152  1.00  0.00    -0.345 N 
HETATM   86  C   UNL     1       2.415   5.955   8.411  1.00  0.00     0.209 A 
HETATM   87  N   UNL     1       3.337   4.975   8.463  1.00  0.00    -0.255 NA
HETATM   88  C   UNL     1       3.709   4.787   7.186  1.00  0.00     0.135 A 
HETATM   89  C   UNL     1       3.013   5.659   6.383  1.00  0.00     0.111 A 
ENDBRANCH  62  85
ENDBRANCH  61  62
ENDBRANCH  60  61
BRANCH  60  90
HETATM   90  N   UNL     1      -0.241  10.435   8.695  1.00  0.00    -0.343 N 
HETATM   91  C   UNL     1      -1.422  10.781   8.132  1.00  0.00     0.111 A 
HETATM   92  C   UNL     1      -1.586  12.141   8.259  1.00  0.00     0.135 A 
HETATM   93  N   UNL     1      -0.512  12.660   8.878  1.00  0.00    -0.255 NA
HETATM   94  C   UNL     1       0.289  11.605   9.122  1.00  0.00     0.209 A 
ENDBRANCH  60  90
ENDBRANCH  59  60
ENDBRANCH  58  59
ENDBRANCH  48  58
ENDBRANCH  42  43
ENDBRANCH  32  42
BRANCH  33  95
HETATM   95  O   UNL     1       0.101   5.129  10.969  1.00  0.00    -0.390 OA
HETATM   96  H   UNL     1       0.309   4.242  10.580  1.00  0.00     0.210 HD
ENDBRANCH  33  95
BRANCH  34  97
HETATM   97  O   UNL     1       2.459   3.612  11.259  1.00  0.00    -0.388 OA
HETATM   98  H   UNL     1       1.747   3.503  10.579  1.00  0.00     0.210 HD
ENDBRANCH  34  97
ENDBRANCH  28  29
ENDBRANCH   1  28
BRANCH   3  99
HETATM   99  O   UNL     1       1.592  -0.717  12.140  1.00  0.00    -0.390 OA
HETATM  100  H   UNL     1       2.122  -0.001  11.700  1.00  0.00     0.210 HD
ENDBRANCH   3  99
BRANCH   4 101
HETATM  101  O   UNL     1      -0.793  -0.280  13.647  1.00  0.00    -0.376 OA
BRANCH 101 102
HETATM  102  C   UNL     1      -1.643  -1.127  12.875  1.00  0.00     0.194 C 
BRANCH 102 103
HETATM  103  C   UNL     1      -1.916  -2.531  13.562  1.00  0.00     0.116 C 
BRANCH 103 104
HETATM  104  N   UNL     1      -2.979  -2.448  14.596  1.00  0.00    -0.343 N 
HETATM  105  C   UNL     1      -3.254  -1.439  15.452  1.00  0.00     0.111 A 
HETATM  106  C   UNL     1      -4.320  -1.810  16.239  1.00  0.00     0.135 A 
HETATM  107  N   UNL     1      -4.704  -3.053  15.902  1.00  0.00    -0.255 NA
HETATM  108  C   UNL     1      -3.868  -3.419  14.910  1.00  0.00     0.209 A 
ENDBRANCH 103 104
BRANCH 103 109
HETATM  109  C   UNL     1      -2.138  -3.642  12.464  1.00  0.00     0.053 C 
BRANCH 109 110
HETATM  110  C   UNL     1      -2.329  -5.193  12.750  1.00  0.00     0.094 C 
BRANCH 110 111
HETATM  111  C   UNL     1      -2.597  -6.083  11.462  1.00  0.00     0.051 C 
BRANCH 111 112
HETATM  112  C   UNL     1      -1.495  -7.121  10.992  1.00  0.00     0.094 C 
BRANCH 112 113
HETATM  113  N   UNL     1      -0.655  -6.612   9.893  1.00  0.00    -0.345 N 
HETATM  114  C   UNL     1       0.498  -7.134   9.431  1.00  0.00     0.111 A 
HETATM  115  C   UNL     1       0.985  -6.293   8.453  1.00  0.00     0.135 A 
HETATM  116  N   UNL     1       0.155  -5.241   8.317  1.00  0.00    -0.255 NA
HETATM  117  C   UNL     1      -0.828  -5.459   9.211  1.00  0.00     0.209 A 
ENDBRANCH 112 113
BRANCH 112 118
HETATM  118  C   UNL     1      -2.050  -8.523  10.531  1.00  0.00     0.051 C 
BRANCH 118 119
HETATM  119  C   UNL     1      -1.716  -9.653  11.552  1.00  0.00     0.094 C 
BRANCH 119 120
HETATM  120  C   UNL     1      -0.449  -9.438  12.453  1.00  0.00     0.051 C 
BRANCH 120 121
HETATM  121  C   UNL     1       0.530 -10.623  12.762  1.00  0.00     0.089 C 
HETATM  122  C   UNL     1       1.266 -11.033  11.474  1.00  0.00     0.033 C 
BRANCH 121 123
HETATM  123  N   UNL     1       1.520 -10.372  13.796  1.00  0.00    -0.334 N 
HETATM  124  C   UNL     1       2.890 -10.695  13.822  1.00  0.00     0.082 A 
HETATM  125  C   UNL     1       3.353 -10.265  14.994  1.00  0.00     0.150 A 
HETATM  126  N   UNL     1       2.317  -9.669  15.747  1.00  0.00    -0.254 NA
HETATM  127  C   UNL     1       1.262  -9.745  15.032  1.00  0.00     0.210 A 
ENDBRANCH 121 123
ENDBRANCH 120 121
ENDBRANCH 119 120
BRANCH 119 128
HETATM  128  N   UNL     1      -2.902  -9.994  12.362  1.00  0.00    -0.345 N 
HETATM  129  C   UNL     1      -3.551 -11.179  12.427  1.00  0.00     0.209 A 
HETATM  130  N   UNL     1      -4.585 -11.149  13.290  1.00  0.00    -0.255 NA
HETATM  131  C   UNL     1      -4.580  -9.898  13.789  1.00  0.00     0.135 A 
HETATM  132  C   UNL     1      -3.544  -9.185  13.225  1.00  0.00     0.111 A 
ENDBRANCH 119 128
ENDBRANCH 118 119
ENDBRANCH 112 118
ENDBRANCH 111 112
ENDBRANCH 110 111
BRANCH 110 133
HETATM  133  N   UNL     1      -1.357  -5.722  13.744  1.00  0.00    -0.345 N 
HETATM  134  C   UNL     1      -0.020  -5.574  13.808  1.00  0.00     0.111 A 
HETATM  135  C   UNL     1       0.436  -6.167  14.963  1.00  0.00     0.135 A 
HETATM  136  N   UNL     1      -0.610  -6.646  15.653  1.00  0.00    -0.255 NA
HETATM  137  C   UNL     1      -1.686  -6.342  14.896  1.00  0.00     0.209 A 
ENDBRANCH 110 133
ENDBRANCH 109 110
ENDBRANCH 103 109
ENDBRANCH 102 103
ENDBRANCH 101 102
ENDBRANCH   4 101
BRANCH  13 138
HETATM  138  O   UNL     1      -1.190  -3.806  17.756  1.00  0.00    -0.390 OA
HETATM  139  H   UNL     1      -1.277  -4.716  18.142  1.00  0.00     0.210 HD
ENDBRANCH  13 138
BRANCH  17 140
HETATM  140  O   UNL     1       0.959  -5.789  18.371  1.00  0.00    -0.388 OA
HETATM  141  H   UNL     1       1.741  -6.184  18.833  1.00  0.00     0.210 HD
ENDBRANCH  17 140
BRANCH  15 142
HETATM  142  O   UNL     1      -0.115  -4.833  20.592  1.00  0.00    -0.348 OA
BRANCH 142 143
HETATM  143  C   UNL     1      -1.006  -4.253  21.543  1.00  0.00     0.187 C 
HETATM  144  C   UNL     1      -2.402  -5.002  21.573  1.00  0.00     0.177 C 
HETATM  145  O   UNL     1      -3.067  -4.931  22.846  1.00  0.00    -0.378 OA
HETATM  146  C   UNL     1      -2.766  -3.746  23.544  1.00  0.00     0.202 C 
HETATM  147  C   UNL     1      -1.296  -3.760  24.017  1.00  0.00     0.173 C 
HETATM  148  C   UNL     1      -0.369  -4.397  22.939  1.00  0.00     0.180 C 
BRANCH 144 149
HETATM  149  C   UNL     1      -3.361  -4.519  20.469  1.00  0.00     0.215 C 
BRANCH 149 150
HETATM  150  O   UNL     1      -4.469  -5.314  20.156  1.00  0.00    -0.303 OA
BRANCH 150 151
HETATM  151  C   UNL     1      -4.804  -6.313  19.277  1.00  0.00     0.323 C 
HETATM  152  C   UNL     1      -3.667  -6.930  18.506  1.00  0.00     0.147 C 
HETATM  153  O   UNL     1      -5.326  -7.225  19.899  1.00  0.00    -0.241 OA
BRANCH 151 154
HETATM  154  O   UNL     1      -5.653  -5.836  18.345  1.00  0.00    -0.132 OA
HETATM  155 NA   UNL     1      -5.083  -5.608  16.422  1.00  0.00     0.000 Na
ENDBRANCH 151 154
ENDBRANCH 150 151
ENDBRANCH 149 150
ENDBRANCH 144 149
BRANCH 147 156
HETATM  156  O   UNL     1      -1.127  -4.391  25.264  1.00  0.00    -0.391 OA
HETATM  157  H   UNL     1      -1.461  -3.779  25.970  1.00  0.00     0.210 HD
ENDBRANCH 147 156
BRANCH 148 158
HETATM  158  O   UNL     1      -0.091  -5.756  23.206  1.00  0.00    -0.390 OA
HETATM  159  H   UNL     1      -0.502  -6.321  22.505  1.00  0.00     0.210 HD
ENDBRANCH 148 158
ENDBRANCH 142 143
ENDBRANCH  15 142
TORSDOF 60
ENDMDL
MODEL 2
REMARK VINA RESULT:      -7.8      3.300     15.314
REMARK WARNING: 32 MAX_TORS EXCEEDED!!!
REMARK  60 active torsions:
REMARK  status: ('A' for Active; 'I' for Inactive)
REMARK    1  A    between atoms: C_1  and  O_30 
REMARK    2  A    between atoms: C_3  and  O_9 
REMARK    3  A    between atoms: C_4  and  O_11 
REMARK    4  A    between atoms: O_11  and  C_106 
REMARK    5  A    between atoms: O_14  and  C_18 
REMARK    6  A    between atoms: O_19  and  C_22 
REMARK    7  A    between atoms: O_19  and  C_42 
REMARK    8  A    between atoms: O_21  and  C_24 
REMARK    9  A    between atoms: O_26  and  C_29 
REMARK   10  A    between atoms: C_28  and  C_34 
REMARK   11  A    between atoms: O_30  and  C_33 
REMARK   12  A    between atoms: C_31  and  O_53 
REMARK   13  A    between atoms: O_32  and  C_35 
REMARK   14  A    between atoms: C_34  and  O_59 
REMARK   15  A    between atoms: O_37  and  C_41 
REMARK   16  A    between atoms: C_39  and  C_45 
REMARK   17  A    between atoms: O_40  and  C_45 
REMARK   18  A    between atoms: O_40  and  C_157 
REMARK   19  A    between atoms: O_43  and  C_46 
REMARK   20  A    between atoms: O_48  and  C_52 
REMARK   21  A    between atoms: C_50  and  C_57 
REMARK   22  A    between atoms: O_51  and  C_57 
REMARK   23  A    between atoms: O_51  and  C_135 
REMARK   24  A    between atoms: O_53  and  C_56 
REMARK   25  A    between atoms: O_55  and  C_58 
REMARK   26  A    between atoms: O_55  and  C_60 
REMARK   27  A    between atoms: O_59  and  C_141 
REMARK   28  A    between atoms: C_60  and  C_61 
REMARK   29  A    between atoms: C_61  and  C_62 
REMARK   30  A    between atoms: C_61  and  N_75 
REMARK   31  A    between atoms: C_62  and  C_63 
REMARK   32  A    between atoms: C_63  and  C_64 
REMARK   33  A    between atoms: C_63  and  N_89 
REMARK   34  A    between atoms: C_64  and  C_65 
REMARK   35  A    between atoms: C_65  and  C_66 
REMARK   36  A    between atoms: C_65  and  N_79 
REMARK   37  A    between atoms: C_66  and  C_67 
REMARK   38  A    between atoms: C_67  and  C_68 
REMARK   39  A    between atoms: C_67  and  N_94 
REMARK   40  A    between atoms: C_68  and  C_69 
REMARK   41  A    between atoms: C_69  and  N_84 
REMARK   42  A    between atoms: N_101  and  C_107 
REMARK   43  A    between atoms: C_106  and  C_107 
REMARK   44  A    between atoms: C_107  and  C_114 
REMARK   45  A    between atoms: N_110  and  C_116 
REMARK   46  A    between atoms: C_112  and  C_116 
REMARK   47  A    between atoms: C_112  and  C_118 
REMARK   48  A    between atoms: N_113  and  C_123 
REMARK   49  A    between atoms: C_114  and  C_118 
REMARK   50  A    between atoms: C_116  and  C_120 
REMARK   51  A    between atoms: N_117  and  C_118 
REMARK   52  A    between atoms: C_120  and  C_125 
REMARK   53  A    between atoms: C_123  and  C_124 
REMARK   54  A    between atoms: C_124  and  C_125 
REMARK   55  A    between atoms: C_125  and  N_128 
REMARK   56  A    between atoms: C_135  and  C_136 
REMARK   57  A    between atoms: C_136  and  O_138 
REMARK   58  A    between atoms: C_141  and  C_142 
REMARK   59  A    between atoms: C_142  and  O_143 
REMARK   60  A    between atoms: C_157  and  O_158 
ROOT
HETATM    1  C   UNL     1      -2.140   6.468  14.355  1.00  0.00     0.187 C 
HETATM    2  C   UNL     1      -0.915   6.911  15.253  1.00  0.00     0.180 C 
HETATM    3  C   UNL     1      -2.457   7.452  13.181  1.00  0.00     0.183 C 
HETATM    4  C   UNL     1      -1.174   8.104  12.574  1.00  0.00     0.208 C 
HETATM    5  C   UNL     1      -0.509   8.741  13.829  1.00  0.00     0.292 C 
HETATM    6  C   UNL     1      -1.311   7.575  16.613  1.00  0.00     0.203 C 
HETATM    7  O   UNL     1      -0.266   7.895  17.534  1.00  0.00    -0.370 OA
HETATM    8  O   UNL     1       0.077   7.684  14.566  1.00  0.00    -0.348 OA
HETATM    9  O   UNL     1       0.447   9.771  13.531  1.00  0.00    -0.348 OA
HETATM   10  O   UNL     1       1.643  12.863  14.939  1.00  0.00    -0.348 OA
HETATM   11  C   UNL     1       1.117  11.558  15.166  1.00  0.00     0.180 C 
HETATM   12  O   UNL     1       1.465  11.993  17.533  1.00  0.00    -0.304 OA
HETATM   13  C   UNL     1      -0.078  12.142  12.981  1.00  0.00     0.183 C 
HETATM   14  C   UNL     1       0.101  11.071  14.080  1.00  0.00     0.187 C 
HETATM   15  C   UNL     1       0.720  13.910  14.659  1.00  0.00     0.292 C 
HETATM   16  C   UNL     1       0.574  11.467  16.605  1.00  0.00     0.215 C 
HETATM   17  C   UNL     1      -0.432  13.460  13.716  1.00  0.00     0.204 C 
HETATM   18 NA   UNL     1       3.855   6.600  16.186  1.00  0.00     0.050 Na
HETATM   19  C   UNL     1       1.005   7.446  17.123  1.00  0.00     0.261 C 
HETATM   20  C   UNL     1       1.793   6.865  18.254  1.00  0.00     0.310 C 
HETATM   21  O   UNL     1       3.044   6.422  18.026  1.00  0.00    -0.185 OA
HETATM   22  O   UNL     1       1.323   6.796  19.379  1.00  0.00    -0.261 OA
HETATM   23 NA   UNL     1       4.612   9.392  17.271  1.00  0.00     0.051 Na
HETATM   24  C   UNL     1       3.776  12.180  17.128  1.00  0.00     0.146 C 
HETATM   25  C   UNL     1       2.682  11.501  17.903  1.00  0.00     0.314 C 
HETATM   26  O   UNL     1       2.801  10.183  17.659  1.00  0.00    -0.172 OA
HETATM   27  O   UNL     1       2.894  11.756  19.077  1.00  0.00    -0.242 OA
ENDROOT
BRANCH   1  28
HETATM   28  O   UNL     1      -1.908   5.160  13.845  1.00  0.00    -0.348 OA
BRANCH  28  29
HETATM   29  C   UNL     1      -1.710   4.168  14.865  1.00  0.00     0.292 C 
HETATM   30  O   UNL     1      -0.705   3.257  14.434  1.00  0.00    -0.348 OA
HETATM   31  C   UNL     1      -0.437   2.174  15.343  1.00  0.00     0.180 C 
HETATM   32  C   UNL     1      -1.698   1.595  16.065  1.00  0.00     0.187 C 
HETATM   33  C   UNL     1      -2.950   1.940  15.262  1.00  0.00     0.183 C 
HETATM   34  C   UNL     1      -3.072   3.473  15.175  1.00  0.00     0.204 C 
BRANCH  31  35
HETATM   35  C   UNL     1       0.683   2.519  16.364  1.00  0.00     0.203 C 
BRANCH  35  36
HETATM   36  O   UNL     1       1.929   2.824  15.776  1.00  0.00    -0.370 OA
BRANCH  36  37
HETATM   37  C   UNL     1       2.021   4.196  15.514  1.00  0.00     0.262 C 
BRANCH  37  38
HETATM   38  C   UNL     1       2.963   4.401  14.374  1.00  0.00     0.321 C 
HETATM   39  O   UNL     1       3.508   3.443  13.846  1.00  0.00    -0.260 OA
BRANCH  38  40
HETATM   40  O   UNL     1       3.193   5.641  13.907  1.00  0.00    -0.147 OA
HETATM   41 NA   UNL     1       1.675   6.727  13.157  1.00  0.00     0.000 Na
ENDBRANCH  38  40
ENDBRANCH  37  38
ENDBRANCH  36  37
ENDBRANCH  35  36
ENDBRANCH  31  35
BRANCH  32  42
HETATM   42  O   UNL     1      -1.627   0.175  16.130  1.00  0.00    -0.348 OA
BRANCH  42  43
HETATM   43  C   UNL     1      -1.903  -0.393  17.393  1.00  0.00     0.292 C 
HETATM   44  O   UNL     1      -1.664   0.608  18.386  1.00  0.00    -0.351 OA
HETATM   45  C   UNL     1      -0.806   0.223  19.446  1.00  0.00     0.151 C 
HETATM   46  C   UNL     1      -1.250  -1.126  20.056  1.00  0.00     0.068 C 
HETATM   47  C   UNL     1      -1.369  -2.247  18.988  1.00  0.00     0.154 C 
HETATM   48  C   UNL     1      -1.096  -1.734  17.556  1.00  0.00     0.205 C 
BRANCH  45  49
HETATM   49  C   UNL     1      -0.844   1.317  20.534  1.00  0.00     0.200 C 
BRANCH  49  50
HETATM   50  O   UNL     1      -1.584   2.459  20.143  1.00  0.00    -0.379 OA
BRANCH  50  51
HETATM   51  C   UNL     1      -0.755   3.530  19.733  1.00  0.00     0.281 C 
BRANCH  51  52
HETATM   52  C   UNL     1      -1.601   4.730  19.414  1.00  0.00     0.313 C 
HETATM   53  O   UNL     1      -1.694   5.658  20.203  1.00  0.00    -0.260 OA
BRANCH  52  54
HETATM   54  O   UNL     1      -2.269   4.788  18.247  1.00  0.00    -0.148 OA
HETATM   55 NA   UNL     1      -3.795   6.076  17.994  1.00  0.00     0.000 Na
ENDBRANCH  52  54
ENDBRANCH  51  52
ENDBRANCH  50  51
ENDBRANCH  49  50
ENDBRANCH  45  49
BRANCH  47  56
HETATM   56  O   UNL     1      -0.564  -3.357  19.298  1.00  0.00    -0.393 OA
HETATM   57  H   UNL     1      -0.758  -4.069  18.631  1.00  0.00     0.210 HD
ENDBRANCH  47  56
BRANCH  48  58
HETATM   58  O   UNL     1       0.311  -1.599  17.407  1.00  0.00    -0.376 OA
BRANCH  58  59
HETATM   59  C   UNL     1       0.884  -2.391  16.377  1.00  0.00     0.194 C 
BRANCH  59  60
HETATM   60  C   UNL     1       0.157  -2.280  15.000  1.00  0.00     0.116 C 
BRANCH  60  61
HETATM   61  C   UNL     1       0.009  -3.695  14.332  1.00  0.00     0.053 C 
BRANCH  61  62
HETATM   62  C   UNL     1      -1.373  -4.159  13.733  1.00  0.00     0.094 C 
BRANCH  62  63
HETATM   63  C   UNL     1      -1.264  -5.616  13.126  1.00  0.00     0.051 C 
BRANCH  63  64
HETATM   64  C   UNL     1      -2.530  -6.307  12.518  1.00  0.00     0.094 C 
BRANCH  64  65
HETATM   65  C   UNL     1      -2.316  -6.768  11.031  1.00  0.00     0.051 C 
BRANCH  65  66
HETATM   66  C   UNL     1      -0.890  -7.341  10.799  1.00  0.00     0.094 C 
BRANCH  66  67
HETATM   67  C   UNL     1      -0.772  -8.902  10.764  1.00  0.00     0.051 C 
BRANCH  67  68
HETATM   68  C   UNL     1      -0.060  -9.668  11.924  1.00  0.00     0.089 C 
HETATM   69  C   UNL     1      -0.948 -10.837  12.382  1.00  0.00     0.033 C 
BRANCH  68  70
HETATM   70  N   UNL     1       1.265 -10.184  11.621  1.00  0.00    -0.334 N 
HETATM   71  C   UNL     1       1.747 -10.473  10.330  1.00  0.00     0.210 A 
HETATM   72  N   UNL     1       2.943 -10.916  10.365  1.00  0.00    -0.254 NA
HETATM   73  C   UNL     1       3.322 -10.934  11.726  1.00  0.00     0.150 A 
HETATM   74  C   UNL     1       2.326 -10.492  12.491  1.00  0.00     0.082 A 
ENDBRANCH  68  70
ENDBRANCH  67  68
ENDBRANCH  66  67
BRANCH  66  75
HETATM   75  N   UNL     1      -0.205  -6.698   9.667  1.00  0.00    -0.345 N 
HETATM   76  C   UNL     1      -0.554  -5.574   9.005  1.00  0.00     0.209 A 
HETATM   77  N   UNL     1       0.321  -5.271   8.024  1.00  0.00    -0.255 NA
HETATM   78  C   UNL     1       1.255  -6.241   8.081  1.00  0.00     0.135 A 
HETATM   79  C   UNL     1       0.937  -7.118   9.092  1.00  0.00     0.111 A 
ENDBRANCH  66  75
ENDBRANCH  65  66
ENDBRANCH  64  65
BRANCH  64  80
HETATM   80  N   UNL     1      -2.919  -7.498  13.301  1.00  0.00    -0.345 N 
HETATM   81  C   UNL     1      -3.798  -8.471  12.984  1.00  0.00     0.209 A 
HETATM   82  N   UNL     1      -3.867  -9.427  13.935  1.00  0.00    -0.255 NA
HETATM   83  C   UNL     1      -2.988  -9.043  14.880  1.00  0.00     0.135 A 
HETATM   84  C   UNL     1      -2.397  -7.865  14.492  1.00  0.00     0.111 A 
ENDBRANCH  64  80
ENDBRANCH  63  64
ENDBRANCH  62  63
BRANCH  62  85
HETATM   85  N   UNL     1      -2.527  -3.860  14.614  1.00  0.00    -0.345 N 
HETATM   86  C   UNL     1      -2.805  -4.475  15.783  1.00  0.00     0.209 A 
HETATM   87  N   UNL     1      -3.963  -4.062  16.331  1.00  0.00    -0.255 NA
HETATM   88  C   UNL     1      -4.455  -3.169  15.456  1.00  0.00     0.135 A 
HETATM   89  C   UNL     1      -3.593  -3.061  14.391  1.00  0.00     0.111 A 
ENDBRANCH  62  85
ENDBRANCH  61  62
ENDBRANCH  60  61
BRANCH  60  90
HETATM   90  N   UNL     1       0.729  -1.232  14.119  1.00  0.00    -0.343 N 
HETATM   91  C   UNL     1       1.959  -0.667  14.139  1.00  0.00     0.111 A 
HETATM   92  C   UNL     1       2.029   0.265  13.131  1.00  0.00     0.135 A 
HETATM   93  N   UNL     1       0.850   0.310  12.488  1.00  0.00    -0.255 NA
HETATM   94  C   UNL     1       0.080  -0.601  13.113  1.00  0.00     0.209 A 
ENDBRANCH  60  90
ENDBRANCH  59  60
ENDBRANCH  58  59
ENDBRANCH  48  58
ENDBRANCH  42  43
ENDBRANCH  32  42
BRANCH  33  95
HETATM   95  O   UNL     1      -2.925   1.317  13.997  1.00  0.00    -0.390 OA
HETATM   96  H   UNL     1      -2.487   0.432  14.070  1.00  0.00     0.210 HD
ENDBRANCH  33  95
BRANCH  34  97
HETATM   97  O   UNL     1      -4.115   3.853  14.312  1.00  0.00    -0.388 OA
HETATM   98  H   UNL     1      -4.433   4.747  14.595  1.00  0.00     0.210 HD
ENDBRANCH  34  97
ENDBRANCH  28  29
ENDBRANCH   1  28
BRANCH   3  99
HETATM   99  O   UNL     1      -3.233   6.818  12.198  1.00  0.00    -0.390 OA
HETATM  100  H   UNL     1      -3.421   5.900  12.526  1.00  0.00     0.210 HD
ENDBRANCH   3  99
BRANCH   4 101
HETATM  101  O   UNL     1      -0.410   7.100  11.875  1.00  0.00    -0.376 OA
BRANCH 101 102
HETATM  102  C   UNL     1      -0.136   7.396  10.506  1.00  0.00     0.194 C 
BRANCH 102 103
HETATM  103  C   UNL     1       1.414   7.496  10.187  1.00  0.00     0.116 C 
BRANCH 103 104
HETATM  104  N   UNL     1       2.102   6.189  10.348  1.00  0.00    -0.343 N 
HETATM  105  C   UNL     1       3.424   5.914  10.296  1.00  0.00     0.111 A 
HETATM  106  C   UNL     1       3.598   4.562  10.490  1.00  0.00     0.135 A 
HETATM  107  N   UNL     1       2.396   3.981  10.639  1.00  0.00    -0.255 NA
HETATM  108  C   UNL     1       1.508   4.989  10.540  1.00  0.00     0.209 A 
ENDBRANCH 103 104
BRANCH 103 109
HETATM  109  C   UNL     1       1.642   8.201   8.794  1.00  0.00     0.053 C 
BRANCH 109 110
HETATM  110  C   UNL     1       0.505   8.534   7.735  1.00  0.00     0.094 C 
BRANCH 110 111
HETATM  111  C   UNL     1      -0.515   7.349   7.453  1.00  0.00     0.051 C 
BRANCH 111 112
HETATM  112  C   UNL     1      -0.636   6.760   5.987  1.00  0.00     0.094 C 
BRANCH 112 113
HETATM  113  N   UNL     1      -0.975   5.326   5.967  1.00  0.00    -0.345 N 
HETATM  114  C   UNL     1      -2.144   4.753   6.311  1.00  0.00     0.111 A 
HETATM  115  C   UNL     1      -1.993   3.386   6.218  1.00  0.00     0.135 A 
HETATM  116  N   UNL     1      -0.733   3.102   5.839  1.00  0.00    -0.255 NA
HETATM  117  C   UNL     1      -0.136   4.301   5.702  1.00  0.00     0.209 A 
ENDBRANCH 112 113
BRANCH 112 118
HETATM  118  C   UNL     1       0.646   6.939   5.086  1.00  0.00     0.051 C 
BRANCH 118 119
HETATM  119  C   UNL     1       0.284   7.261   3.604  1.00  0.00     0.094 C 
BRANCH 119 120
HETATM  120  C   UNL     1       1.298   6.773   2.509  1.00  0.00     0.051 C 
BRANCH 120 121
HETATM  121  C   UNL     1       1.364   7.470   1.107  1.00  0.00     0.089 C 
HETATM  122  C   UNL     1       2.415   6.765   0.230  1.00  0.00     0.033 C 
BRANCH 121 123
HETATM  123  N   UNL     1       0.113   7.526   0.368  1.00  0.00    -0.334 N 
HETATM  124  C   UNL     1      -0.556   6.509  -0.337  1.00  0.00     0.082 A 
HETATM  125  C   UNL     1      -1.651   7.068  -0.849  1.00  0.00     0.150 A 
HETATM  126  N   UNL     1      -1.716   8.436  -0.502  1.00  0.00    -0.254 NA
HETATM  127  C   UNL     1      -0.680   8.679   0.202  1.00  0.00     0.210 A 
ENDBRANCH 121 123
ENDBRANCH 120 121
ENDBRANCH 119 120
BRANCH 119 128
HETATM  128  N   UNL     1      -1.093   6.827   3.296  1.00  0.00    -0.345 N 
HETATM  129  C   UNL     1      -2.233   7.547   3.401  1.00  0.00     0.209 A 
HETATM  130  N   UNL     1      -3.317   6.847   3.012  1.00  0.00    -0.255 NA
HETATM  131  C   UNL     1      -2.835   5.644   2.645  1.00  0.00     0.135 A 
HETATM  132  C   UNL     1      -1.468   5.628   2.814  1.00  0.00     0.111 A 
ENDBRANCH 119 128
ENDBRANCH 118 119
ENDBRANCH 112 118
ENDBRANCH 111 112
ENDBRANCH 110 111
BRANCH 110 133
HETATM  133  N   UNL     1      -0.073   9.892   7.914  1.00  0.00    -0.345 N 
HETATM  134  C   UNL     1      -1.285  10.261   8.373  1.00  0.00     0.111 A 
HETATM  135  C   UNL     1      -1.329  11.635   8.447  1.00  0.00     0.135 A 
HETATM  136  N   UNL     1      -0.137  12.133   8.083  1.00  0.00    -0.255 NA
HETATM  137  C   UNL     1       0.609  11.049   7.784  1.00  0.00     0.209 A 
ENDBRANCH 110 133
ENDBRANCH 109 110
ENDBRANCH 103 109
ENDBRANCH 102 103
ENDBRANCH 101 102
ENDBRANCH   4 101
BRANCH  13 138
HETATM  138  O   UNL     1       1.093  12.305  12.222  1.00  0.00    -0.390 OA
HETATM  139  H   UNL     1       0.917  11.887  11.340  1.00  0.00     0.210 HD
ENDBRANCH  13 138
BRANCH  17 140
HETATM  140  O   UNL     1      -0.848  14.489  12.850  1.00  0.00    -0.388 OA
HETATM  141  H   UNL     1      -0.074  14.742  12.286  1.00  0.00     0.210 HD
ENDBRANCH  17 140
BRANCH  15 142
HETATM  142  O   UNL     1       1.484  14.925  14.022  1.00  0.00    -0.348 OA
BRANCH 142 143
HETATM  143  C   UNL     1       2.620  15.373  14.759  1.00  0.00     0.187 C 
HETATM  144  C   UNL     1       3.836  15.726  13.806  1.00  0.00     0.177 C 
HETATM  145  O   UNL     1       4.716  16.729  14.342  1.00  0.00    -0.378 OA
HETATM  146  C   UNL     1       4.767  16.702  15.749  1.00  0.00     0.202 C 
HETATM  147  C   UNL     1       3.427  17.184  16.345  1.00  0.00     0.173 C 
HETATM  148  C   UNL     1       2.223  16.661  15.506  1.00  0.00     0.180 C 
BRANCH 144 149
HETATM  149  C   UNL     1       4.658  14.488  13.406  1.00  0.00     0.215 C 
BRANCH 149 150
HETATM  150  O   UNL     1       5.735  14.658  12.529  1.00  0.00    -0.303 OA
BRANCH 150 151
HETATM  151  C   UNL     1       7.077  14.380  12.481  1.00  0.00     0.323 C 
HETATM  152  C   UNL     1       7.668  14.181  11.110  1.00  0.00     0.147 C 
HETATM  153  O   UNL     1       7.689  15.310  12.982  1.00  0.00    -0.241 OA
BRANCH 151 154
HETATM  154  O   UNL     1       7.332  13.238  13.151  1.00  0.00    -0.132 OA
HETATM  155 NA   UNL     1       7.674  11.503  12.178  1.00  0.00     0.000 Na
ENDBRANCH 151 154
ENDBRANCH 150 151
ENDBRANCH 149 150
ENDBRANCH 144 149
BRANCH 147 156
HETATM  156  O   UNL     1       3.366  18.583  16.497  1.00  0.00    -0.391 OA
HETATM  157  H   UNL     1       4.293  18.928  16.575  1.00  0.00     0.210 HD
ENDBRANCH 147 156
BRANCH 148 158
HETATM  158  O   UNL     1       1.750  17.626  14.589  1.00  0.00    -0.390 OA
HETATM  159  H   UNL     1       2.518  18.089  14.171  1.00  0.00     0.210 HD
ENDBRANCH 148 158
ENDBRANCH 142 143
ENDBRANCH  15 142
TORSDOF 60
ENDMDL
MODEL 3
REMARK VINA RESULT:      -7.7      3.408     15.586
REMARK WARNING: 32 MAX_TORS EXCEEDED!!!
REMARK  60 active torsions:
REMARK  status: ('A' for Active; 'I' for Inactive)
REMARK    1  A    between atoms: C_1  and  O_30 
REMARK    2  A    between atoms: C_3  and  O_9 
REMARK    3  A    between atoms: C_4  and  O_11 
REMARK    4  A    between atoms: O_11  and  C_106 
REMARK    5  A    between atoms: O_14  and  C_18 
REMARK    6  A    between atoms: O_19  and  C_22 
REMARK    7  A    between atoms: O_19  and  C_42 
REMARK    8  A    between atoms: O_21  and  C_24 
REMARK    9  A    between atoms: O_26  and  C_29 
REMARK   10  A    between atoms: C_28  and  C_34 
REMARK   11  A    between atoms: O_30  and  C_33 
REMARK   12  A    between atoms: C_31  and  O_53 
REMARK   13  A    between atoms: O_32  and  C_35 
REMARK   14  A    between atoms: C_34  and  O_59 
REMARK   15  A    between atoms: O_37  and  C_41 
REMARK   16  A    between atoms: C_39  and  C_45 
REMARK   17  A    between atoms: O_40  and  C_45 
REMARK   18  A    between atoms: O_40  and  C_157 
REMARK   19  A    between atoms: O_43  and  C_46 
REMARK   20  A    between atoms: O_48  and  C_52 
REMARK   21  A    between atoms: C_50  and  C_57 
REMARK   22  A    between atoms: O_51  and  C_57 
REMARK   23  A    between atoms: O_51  and  C_135 
REMARK   24  A    between atoms: O_53  and  C_56 
REMARK   25  A    between atoms: O_55  and  C_58 
REMARK   26  A    between atoms: O_55  and  C_60 
REMARK   27  A    between atoms: O_59  and  C_141 
REMARK   28  A    between atoms: C_60  and  C_61 
REMARK   29  A    between atoms: C_61  and  C_62 
REMARK   30  A    between atoms: C_61  and  N_75 
REMARK   31  A    between atoms: C_62  and  C_63 
REMARK   32  A    between atoms: C_63  and  C_64 
REMARK   33  A    between atoms: C_63  and  N_89 
REMARK   34  A    between atoms: C_64  and  C_65 
REMARK   35  A    between atoms: C_65  and  C_66 
REMARK   36  A    between atoms: C_65  and  N_79 
REMARK   37  A    between atoms: C_66  and  C_67 
REMARK   38  A    between atoms: C_67  and  C_68 
REMARK   39  A    between atoms: C_67  and  N_94 
REMARK   40  A    between atoms: C_68  and  C_69 
REMARK   41  A    between atoms: C_69  and  N_84 
REMARK   42  A    between atoms: N_101  and  C_107 
REMARK   43  A    between atoms: C_106  and  C_107 
REMARK   44  A    between atoms: C_107  and  C_114 
REMARK   45  A    between atoms: N_110  and  C_116 
REMARK   46  A    between atoms: C_112  and  C_116 
REMARK   47  A    between atoms: C_112  and  C_118 
REMARK   48  A    between atoms: N_113  and  C_123 
REMARK   49  A    between atoms: C_114  and  C_118 
REMARK   50  A    between atoms: C_116  and  C_120 
REMARK   51  A    between atoms: N_117  and  C_118 
REMARK   52  A    between atoms: C_120  and  C_125 
REMARK   53  A    between atoms: C_123  and  C_124 
REMARK   54  A    between atoms: C_124  and  C_125 
REMARK   55  A    between atoms: C_125  and  N_128 
REMARK   56  A    between atoms: C_135  and  C_136 
REMARK   57  A    between atoms: C_136  and  O_138 
REMARK   58  A    between atoms: C_141  and  C_142 
REMARK   59  A    between atoms: C_142  and  O_143 
REMARK   60  A    between atoms: C_157  and  O_158 
ROOT
HETATM    1  C   UNL     1      -2.422   6.725  14.426  1.00  0.00     0.187 C 
HETATM    2  C   UNL     1      -1.178   7.034  15.353  1.00  0.00     0.180 C 
HETATM    3  C   UNL     1      -2.577   7.709  13.220  1.00  0.00     0.183 C 
HETATM    4  C   UNL     1      -1.203   8.176  12.640  1.00  0.00     0.208 C 
HETATM    5  C   UNL     1      -0.501   8.758  13.901  1.00  0.00     0.292 C 
HETATM    6  C   UNL     1      -1.527   7.779  16.683  1.00  0.00     0.203 C 
HETATM    7  O   UNL     1      -0.477   7.990  17.630  1.00  0.00    -0.370 OA
HETATM    8  O   UNL     1      -0.076   7.656  14.681  1.00  0.00    -0.348 OA
HETATM    9  O   UNL     1       0.587   9.650  13.611  1.00  0.00    -0.348 OA
HETATM   10  O   UNL     1       2.125  12.603  14.985  1.00  0.00    -0.348 OA
HETATM   11  C   UNL     1       1.431  11.382  15.225  1.00  0.00     0.180 C 
HETATM   12  O   UNL     1       1.761  11.834  17.591  1.00  0.00    -0.304 OA
HETATM   13  C   UNL     1       0.386  12.053  12.988  1.00  0.00     0.183 C 
HETATM   14  C   UNL     1       0.393  10.998  14.118  1.00  0.00     0.187 C 
HETATM   15  C   UNL     1       1.352  13.751  14.650  1.00  0.00     0.292 C 
HETATM   16  C   UNL     1       0.838  11.400  16.646  1.00  0.00     0.215 C 
HETATM   17  C   UNL     1       0.181  13.425  13.680  1.00  0.00     0.204 C 
HETATM   18 NA   UNL     1       3.484   6.147  16.450  1.00  0.00     0.050 Na
HETATM   19  C   UNL     1       0.738   7.373  17.273  1.00  0.00     0.261 C 
HETATM   20  C   UNL     1       1.412   6.728  18.443  1.00  0.00     0.310 C 
HETATM   21  O   UNL     1       2.603   6.124  18.266  1.00  0.00    -0.185 OA
HETATM   22  O   UNL     1       0.904   6.749  19.552  1.00  0.00    -0.261 OA
HETATM   23 NA   UNL     1       4.558   8.850  17.493  1.00  0.00     0.051 Na
HETATM   24  C   UNL     1       4.088  11.717  17.258  1.00  0.00     0.146 C 
HETATM   25  C   UNL     1       2.894  11.202  18.012  1.00  0.00     0.314 C 
HETATM   26  O   UNL     1       2.851   9.874  17.804  1.00  0.00    -0.172 OA
HETATM   27  O   UNL     1       3.102  11.461  19.187  1.00  0.00    -0.242 OA
ENDROOT
BRANCH   1  28
HETATM   28  O   UNL     1      -2.344   5.385  13.954  1.00  0.00    -0.348 OA
BRANCH  28  29
HETATM   29  C   UNL     1      -2.015   4.430  14.977  1.00  0.00     0.292 C 
HETATM   30  O   UNL     1      -0.822   3.748  14.604  1.00  0.00    -0.348 OA
HETATM   31  C   UNL     1      -0.399   2.721  15.520  1.00  0.00     0.180 C 
HETATM   32  C   UNL     1      -1.560   1.886  16.154  1.00  0.00     0.187 C 
HETATM   33  C   UNL     1      -2.804   1.992  15.274  1.00  0.00     0.183 C 
HETATM   34  C   UNL     1      -3.226   3.472  15.192  1.00  0.00     0.204 C 
BRANCH  31  35
HETATM   35  C   UNL     1       0.564   3.261  16.614  1.00  0.00     0.203 C 
BRANCH  35  36
HETATM   36  O   UNL     1       1.871   3.529  16.154  1.00  0.00    -0.370 OA
BRANCH  36  37
HETATM   37  C   UNL     1       2.299   2.517  15.288  1.00  0.00     0.262 C 
BRANCH  37  38
HETATM   38  C   UNL     1       2.985   3.148  14.121  1.00  0.00     0.321 C 
HETATM   39  O   UNL     1       2.512   3.044  13.000  1.00  0.00    -0.260 OA
BRANCH  38  40
HETATM   40  O   UNL     1       4.113   3.856  14.307  1.00  0.00    -0.147 OA
HETATM   41 NA   UNL     1       5.451   4.021  12.814  1.00  0.00     0.000 Na
ENDBRANCH  38  40
ENDBRANCH  37  38
ENDBRANCH  36  37
ENDBRANCH  35  36
ENDBRANCH  31  35
BRANCH  32  42
HETATM   42  O   UNL     1      -1.211   0.508  16.211  1.00  0.00    -0.348 OA
BRANCH  42  43
HETATM   43  C   UNL     1      -2.031  -0.296  17.032  1.00  0.00     0.292 C 
HETATM   44  O   UNL     1      -2.287   0.428  18.239  1.00  0.00    -0.351 OA
HETATM   45  C   UNL     1      -2.009  -0.271  19.440  1.00  0.00     0.151 C 
HETATM   46  C   UNL     1      -2.669  -1.670  19.433  1.00  0.00     0.068 C 
HETATM   47  C   UNL     1      -2.270  -2.504  18.185  1.00  0.00     0.154 C 
HETATM   48  C   UNL     1      -1.375  -1.716  17.205  1.00  0.00     0.205 C 
BRANCH  45  49
HETATM   49  C   UNL     1      -2.556   0.550  20.627  1.00  0.00     0.200 C 
BRANCH  49  50
HETATM   50  O   UNL     1      -2.313   1.939  20.496  1.00  0.00    -0.379 OA
BRANCH  50  51
HETATM   51  C   UNL     1      -1.454   2.437  21.504  1.00  0.00     0.281 C 
BRANCH  51  52
HETATM   52  C   UNL     1      -0.043   2.480  20.988  1.00  0.00     0.313 C 
HETATM   53  O   UNL     1       0.807   1.717  21.423  1.00  0.00    -0.260 OA
BRANCH  52  54
HETATM   54  O   UNL     1       0.296   3.371  20.037  1.00  0.00    -0.148 OA
HETATM   55 NA   UNL     1       1.954   4.496  20.220  1.00  0.00     0.000 Na
ENDBRANCH  52  54
ENDBRANCH  51  52
ENDBRANCH  50  51
ENDBRANCH  49  50
ENDBRANCH  45  49
BRANCH  47  56
HETATM   56  O   UNL     1      -1.686  -3.734  18.540  1.00  0.00    -0.393 OA
HETATM   57  H   UNL     1      -0.897  -3.540  19.113  1.00  0.00     0.210 HD
ENDBRANCH  47  56
BRANCH  48  58
HETATM   58  O   UNL     1      -0.058  -1.698  17.741  1.00  0.00    -0.376 OA
BRANCH  58  59
HETATM   59  C   UNL     1       0.942  -2.247  16.896  1.00  0.00     0.194 C 
BRANCH  59  60
HETATM   60  C   UNL     1       0.454  -2.575  15.450  1.00  0.00     0.116 C 
BRANCH  60  61
HETATM   61  C   UNL     1       0.720  -4.084  15.101  1.00  0.00     0.053 C 
BRANCH  61  62
HETATM   62  C   UNL     1      -0.458  -5.018  14.628  1.00  0.00     0.094 C 
BRANCH  62  63
HETATM   63  C   UNL     1      -0.695  -6.194  15.659  1.00  0.00     0.051 C 
BRANCH  63  64
HETATM   64  C   UNL     1      -0.259  -7.653  15.296  1.00  0.00     0.094 C 
BRANCH  64  65
HETATM   65  C   UNL     1      -0.065  -7.862  13.751  1.00  0.00     0.051 C 
BRANCH  65  66
HETATM   66  C   UNL     1      -1.412  -7.794  12.980  1.00  0.00     0.094 C 
BRANCH  66  67
HETATM   67  C   UNL     1      -1.317  -7.469  11.451  1.00  0.00     0.051 C 
BRANCH  67  68
HETATM   68  C   UNL     1       0.061  -7.516  10.717  1.00  0.00     0.089 C 
HETATM   69  C   UNL     1       0.385  -8.971  10.338  1.00  0.00     0.033 C 
BRANCH  68  70
HETATM   70  N   UNL     1       0.170  -6.692   9.525  1.00  0.00    -0.334 N 
HETATM   71  C   UNL     1      -0.650  -5.588   9.224  1.00  0.00     0.210 A 
HETATM   72  N   UNL     1      -0.328  -5.055   8.109  1.00  0.00    -0.254 NA
HETATM   73  C   UNL     1       0.761  -5.803   7.610  1.00  0.00     0.150 A 
HETATM   74  C   UNL     1       1.075  -6.786   8.451  1.00  0.00     0.082 A 
ENDBRANCH  68  70
ENDBRANCH  67  68
ENDBRANCH  66  67
BRANCH  66  75
HETATM   75  N   UNL     1      -2.275  -8.953  13.257  1.00  0.00    -0.345 N 
HETATM   76  C   UNL     1      -3.488  -8.973  13.850  1.00  0.00     0.209 A 
HETATM   77  N   UNL     1      -3.995 -10.221  13.925  1.00  0.00    -0.255 NA
HETATM   78  C   UNL     1      -3.064 -11.009  13.351  1.00  0.00     0.135 A 
HETATM   79  C   UNL     1      -2.007 -10.232  12.936  1.00  0.00     0.111 A 
ENDBRANCH  66  75
ENDBRANCH  65  66
ENDBRANCH  64  65
BRANCH  64  80
HETATM   80  N   UNL     1       1.013  -8.012  15.957  1.00  0.00    -0.345 N 
HETATM   81  C   UNL     1       1.741  -9.142  15.838  1.00  0.00     0.209 A 
HETATM   82  N   UNL     1       2.874  -9.099  16.570  1.00  0.00    -0.255 NA
HETATM   83  C   UNL     1       2.861  -7.890  17.163  1.00  0.00     0.135 A 
HETATM   84  C   UNL     1       1.726  -7.216  16.783  1.00  0.00     0.111 A 
ENDBRANCH  64  80
ENDBRANCH  63  64
ENDBRANCH  62  63
BRANCH  62  85
HETATM   85  N   UNL     1      -1.643  -4.271  14.144  1.00  0.00    -0.345 N 
HETATM   86  C   UNL     1      -2.816  -4.145  14.801  1.00  0.00     0.209 A 
HETATM   87  N   UNL     1      -3.748  -3.483  14.089  1.00  0.00    -0.255 NA
HETATM   88  C   UNL     1      -3.150  -3.207  12.918  1.00  0.00     0.135 A 
HETATM   89  C   UNL     1      -1.870  -3.709  12.937  1.00  0.00     0.111 A 
ENDBRANCH  62  85
ENDBRANCH  61  62
ENDBRANCH  60  61
BRANCH  60  90
HETATM   90  N   UNL     1       0.938  -1.607  14.435  1.00  0.00    -0.343 N 
HETATM   91  C   UNL     1       0.233  -0.834  13.577  1.00  0.00     0.111 A 
HETATM   92  C   UNL     1       1.117  -0.101  12.820  1.00  0.00     0.135 A 
HETATM   93  N   UNL     1       2.373  -0.418  13.178  1.00  0.00    -0.255 NA
HETATM   94  C   UNL     1       2.233  -1.338  14.151  1.00  0.00     0.209 A 
ENDBRANCH  60  90
ENDBRANCH  59  60
ENDBRANCH  58  59
ENDBRANCH  48  58
ENDBRANCH  42  43
ENDBRANCH  32  42
BRANCH  33  95
HETATM   95  O   UNL     1      -2.577   1.413  14.007  1.00  0.00    -0.390 OA
HETATM   96  H   UNL     1      -2.197   0.505  14.119  1.00  0.00     0.210 HD
ENDBRANCH  33  95
BRANCH  34  97
HETATM   97  O   UNL     1      -4.268   3.654  14.267  1.00  0.00    -0.388 OA
HETATM   98  H   UNL     1      -5.087   3.885  14.773  1.00  0.00     0.210 HD
ENDBRANCH  34  97
ENDBRANCH  28  29
ENDBRANCH   1  28
BRANCH   3  99
HETATM   99  O   UNL     1      -3.397   7.151  12.227  1.00  0.00    -0.390 OA
HETATM  100  H   UNL     1      -2.795   6.759  11.541  1.00  0.00     0.210 HD
ENDBRANCH   3  99
BRANCH   4 101
HETATM  101  O   UNL     1      -0.553   7.065  11.990  1.00  0.00    -0.376 OA
BRANCH 101 102
HETATM  102  C   UNL     1      -0.296   7.247  10.599  1.00  0.00     0.194 C 
BRANCH 102 103
HETATM  103  C   UNL     1       1.114   7.915  10.307  1.00  0.00     0.116 C 
BRANCH 103 104
HETATM  104  N   UNL     1       2.207   7.269  11.077  1.00  0.00    -0.343 N 
HETATM  105  C   UNL     1       2.665   7.567  12.314  1.00  0.00     0.111 A 
HETATM  106  C   UNL     1       3.699   6.710  12.616  1.00  0.00     0.135 A 
HETATM  107  N   UNL     1       3.912   5.892  11.573  1.00  0.00    -0.255 NA
HETATM  108  C   UNL     1       2.999   6.259  10.651  1.00  0.00     0.209 A 
ENDBRANCH 103 104
BRANCH 103 109
HETATM  109  C   UNL     1       1.361   8.011   8.752  1.00  0.00     0.053 C 
BRANCH 109 110
HETATM  110  C   UNL     1       0.385   8.701   7.705  1.00  0.00     0.094 C 
BRANCH 110 111
HETATM  111  C   UNL     1      -0.782   7.769   7.163  1.00  0.00     0.051 C 
BRANCH 111 112
HETATM  112  C   UNL     1      -0.685   7.177   5.697  1.00  0.00     0.094 C 
BRANCH 112 113
HETATM  113  N   UNL     1      -0.903   5.720   5.646  1.00  0.00    -0.345 N 
HETATM  114  C   UNL     1      -0.012   4.747   5.915  1.00  0.00     0.111 A 
HETATM  115  C   UNL     1      -0.618   3.534   5.664  1.00  0.00     0.135 A 
HETATM  116  N   UNL     1      -1.871   3.745   5.221  1.00  0.00    -0.255 NA
HETATM  117  C   UNL     1      -2.014   5.084   5.214  1.00  0.00     0.209 A 
ENDBRANCH 112 113
BRANCH 112 118
HETATM  118  C   UNL     1       0.673   7.462   4.949  1.00  0.00     0.051 C 
BRANCH 118 119
HETATM  119  C   UNL     1       0.629   7.015   3.455  1.00  0.00     0.094 C 
BRANCH 119 120
HETATM  120  C   UNL     1       0.433   8.148   2.386  1.00  0.00     0.051 C 
BRANCH 120 121
HETATM  121  C   UNL     1      -0.710   8.056   1.317  1.00  0.00     0.089 C 
HETATM  122  C   UNL     1      -0.097   7.809  -0.073  1.00  0.00     0.033 C 
BRANCH 121 123
HETATM  123  N   UNL     1      -1.723   7.042   1.560  1.00  0.00    -0.334 N 
HETATM  124  C   UNL     1      -2.942   7.143   2.255  1.00  0.00     0.082 A 
HETATM  125  C   UNL     1      -3.501   5.935   2.207  1.00  0.00     0.150 A 
HETATM  126  N   UNL     1      -2.673   5.035   1.498  1.00  0.00    -0.254 NA
HETATM  127  C   UNL     1      -1.646   5.700   1.135  1.00  0.00     0.210 A 
ENDBRANCH 121 123
ENDBRANCH 120 121
ENDBRANCH 119 120
BRANCH 119 128
HETATM  128  N   UNL     1       1.789   6.162   3.130  1.00  0.00    -0.345 N 
HETATM  129  C   UNL     1       2.874   5.908   3.897  1.00  0.00     0.209 A 
HETATM  130  N   UNL     1       3.735   5.061   3.301  1.00  0.00    -0.255 NA
HETATM  131  C   UNL     1       3.164   4.769   2.116  1.00  0.00     0.135 A 
HETATM  132  C   UNL     1       1.965   5.439   2.009  1.00  0.00     0.111 A 
ENDBRANCH 119 128
ENDBRANCH 118 119
ENDBRANCH 112 118
ENDBRANCH 111 112
ENDBRANCH 110 111
BRANCH 110 133
HETATM  133  N   UNL     1       0.015  10.090   8.087  1.00  0.00    -0.345 N 
HETATM  134  C   UNL     1      -1.190  10.609   8.395  1.00  0.00     0.111 A 
HETATM  135  C   UNL     1      -1.020  11.921   8.776  1.00  0.00     0.135 A 
HETATM  136  N   UNL     1       0.288  12.218   8.758  1.00  0.00    -0.255 NA
HETATM  137  C   UNL     1       0.891  11.080   8.355  1.00  0.00     0.209 A 
ENDBRANCH 110 133
ENDBRANCH 109 110
ENDBRANCH 103 109
ENDBRANCH 102 103
ENDBRANCH 101 102
ENDBRANCH   4 101
BRANCH  13 138
HETATM  138  O   UNL     1       1.590  12.046  12.265  1.00  0.00    -0.390 OA
HETATM  139  H   UNL     1       2.064  11.210  12.515  1.00  0.00     0.210 HD
ENDBRANCH  13 138
BRANCH  17 140
HETATM  140  O   UNL     1      -0.075  14.473  12.777  1.00  0.00    -0.388 OA
HETATM  141  H   UNL     1      -0.328  15.273  13.306  1.00  0.00     0.210 HD
ENDBRANCH  17 140
BRANCH  15 142
HETATM  142  O   UNL     1       2.257  14.643  14.015  1.00  0.00    -0.348 OA
BRANCH 142 143
HETATM  143  C   UNL     1       2.752  15.689  14.848  1.00  0.00     0.187 C 
HETATM  144  C   UNL     1       3.881  16.533  14.124  1.00  0.00     0.177 C 
HETATM  145  O   UNL     1       3.964  17.895  14.577  1.00  0.00    -0.378 OA
HETATM  146  C   UNL     1       3.583  18.037  15.925  1.00  0.00     0.202 C 
HETATM  147  C   UNL     1       2.065  17.800  16.082  1.00  0.00     0.173 C 
HETATM  148  C   UNL     1       1.581  16.644  15.156  1.00  0.00     0.180 C 
BRANCH 144 149
HETATM  149  C   UNL     1       5.271  15.877  14.224  1.00  0.00     0.215 C 
BRANCH 149 150
HETATM  150  O   UNL     1       6.051  15.791  13.066  1.00  0.00    -0.303 OA
BRANCH 150 151
HETATM  151  C   UNL     1       7.259  15.272  12.675  1.00  0.00     0.323 C 
HETATM  152  C   UNL     1       7.213  14.205  11.612  1.00  0.00     0.147 C 
HETATM  153  O   UNL     1       7.945  16.174  12.220  1.00  0.00    -0.241 OA
BRANCH 151 154
HETATM  154  O   UNL     1       7.875  14.701  13.729  1.00  0.00    -0.132 OA
HETATM  155 NA   UNL     1       8.453  12.768  13.690  1.00  0.00     0.000 Na
ENDBRANCH 151 154
ENDBRANCH 150 151
ENDBRANCH 149 150
ENDBRANCH 144 149
BRANCH 147 156
HETATM  156  O   UNL     1       1.303  18.966  15.873  1.00  0.00    -0.391 OA
HETATM  157  H   UNL     1       1.096  19.364  16.758  1.00  0.00     0.210 HD
ENDBRANCH 147 156
BRANCH 148 158
HETATM  158  O   UNL     1       1.018  17.122  13.952  1.00  0.00    -0.390 OA
HETATM  159  H   UNL     1       1.741  17.423  13.345  1.00  0.00     0.210 HD
ENDBRANCH 148 158
ENDBRANCH 142 143
ENDBRANCH  15 142
TORSDOF 60
ENDMDL
MODEL 4
REMARK VINA RESULT:      -7.7      2.360      4.261
REMARK WARNING: 32 MAX_TORS EXCEEDED!!!
REMARK  60 active torsions:
REMARK  status: ('A' for Active; 'I' for Inactive)
REMARK    1  A    between atoms: C_1  and  O_30 
REMARK    2  A    between atoms: C_3  and  O_9 
REMARK    3  A    between atoms: C_4  and  O_11 
REMARK    4  A    between atoms: O_11  and  C_106 
REMARK    5  A    between atoms: O_14  and  C_18 
REMARK    6  A    between atoms: O_19  and  C_22 
REMARK    7  A    between atoms: O_19  and  C_42 
REMARK    8  A    between atoms: O_21  and  C_24 
REMARK    9  A    between atoms: O_26  and  C_29 
REMARK   10  A    between atoms: C_28  and  C_34 
REMARK   11  A    between atoms: O_30  and  C_33 
REMARK   12  A    between atoms: C_31  and  O_53 
REMARK   13  A    between atoms: O_32  and  C_35 
REMARK   14  A    between atoms: C_34  and  O_59 
REMARK   15  A    between atoms: O_37  and  C_41 
REMARK   16  A    between atoms: C_39  and  C_45 
REMARK   17  A    between atoms: O_40  and  C_45 
REMARK   18  A    between atoms: O_40  and  C_157 
REMARK   19  A    between atoms: O_43  and  C_46 
REMARK   20  A    between atoms: O_48  and  C_52 
REMARK   21  A    between atoms: C_50  and  C_57 
REMARK   22  A    between atoms: O_51  and  C_57 
REMARK   23  A    between atoms: O_51  and  C_135 
REMARK   24  A    between atoms: O_53  and  C_56 
REMARK   25  A    between atoms: O_55  and  C_58 
REMARK   26  A    between atoms: O_55  and  C_60 
REMARK   27  A    between atoms: O_59  and  C_141 
REMARK   28  A    between atoms: C_60  and  C_61 
REMARK   29  A    between atoms: C_61  and  C_62 
REMARK   30  A    between atoms: C_61  and  N_75 
REMARK   31  A    between atoms: C_62  and  C_63 
REMARK   32  A    between atoms: C_63  and  C_64 
REMARK   33  A    between atoms: C_63  and  N_89 
REMARK   34  A    between atoms: C_64  and  C_65 
REMARK   35  A    between atoms: C_65  and  C_66 
REMARK   36  A    between atoms: C_65  and  N_79 
REMARK   37  A    between atoms: C_66  and  C_67 
REMARK   38  A    between atoms: C_67  and  C_68 
REMARK   39  A    between atoms: C_67  and  N_94 
REMARK   40  A    between atoms: C_68  and  C_69 
REMARK   41  A    between atoms: C_69  and  N_84 
REMARK   42  A    between atoms: N_101  and  C_107 
REMARK   43  A    between atoms: C_106  and  C_107 
REMARK   44  A    between atoms: C_107  and  C_114 
REMARK   45  A    between atoms: N_110  and  C_116 
REMARK   46  A    between atoms: C_112  and  C_116 
REMARK   47  A    between atoms: C_112  and  C_118 
REMARK   48  A    between atoms: N_113  and  C_123 
REMARK   49  A    between atoms: C_114  and  C_118 
REMARK   50  A    between atoms: C_116  and  C_120 
REMARK   51  A    between atoms: N_117  and  C_118 
REMARK   52  A    between atoms: C_120  and  C_125 
REMARK   53  A    between atoms: C_123  and  C_124 
REMARK   54  A    between atoms: C_124  and  C_125 
REMARK   55  A    between atoms: C_125  and  N_128 
REMARK   56  A    between atoms: C_135  and  C_136 
REMARK   57  A    between atoms: C_136  and  O_138 
REMARK   58  A    between atoms: C_141  and  C_142 
REMARK   59  A    between atoms: C_142  and  O_143 
REMARK   60  A    between atoms: C_157  and  O_158 
ROOT
HETATM    1  C   UNL     1       2.021   0.955  14.721  1.00  0.00     0.187 C 
HETATM    2  C   UNL     1       2.242   1.060  16.285  1.00  0.00     0.180 C 
HETATM    3  C   UNL     1       1.652  -0.482  14.226  1.00  0.00     0.183 C 
HETATM    4  C   UNL     1       0.764  -1.265  15.246  1.00  0.00     0.208 C 
HETATM    5  C   UNL     1       1.624  -1.196  16.542  1.00  0.00     0.292 C 
HETATM    6  C   UNL     1       3.742   1.090  16.729  1.00  0.00     0.203 C 
HETATM    7  O   UNL     1       4.028   1.303  18.113  1.00  0.00    -0.370 OA
HETATM    8  O   UNL     1       1.490   0.115  17.056  1.00  0.00    -0.348 OA
HETATM    9  O   UNL     1       1.285  -2.187  17.526  1.00  0.00    -0.348 OA
HETATM   10  O   UNL     1       2.907  -4.178  20.052  1.00  0.00    -0.348 OA
HETATM   11  C   UNL     1       2.864  -2.953  19.325  1.00  0.00     0.180 C 
HETATM   12  O   UNL     1       4.666  -2.204  20.775  1.00  0.00    -0.304 OA
HETATM   13  C   UNL     1       2.023  -4.565  17.525  1.00  0.00     0.183 C 
HETATM   14  C   UNL     1       2.374  -3.095  17.845  1.00  0.00     0.187 C 
HETATM   15  C   UNL     1       3.562  -5.286  19.446  1.00  0.00     0.292 C 
HETATM   16  C   UNL     1       4.218  -2.230  19.459  1.00  0.00     0.215 C 
HETATM   17  C   UNL     1       3.265  -5.402  17.924  1.00  0.00     0.204 C 
HETATM   18 NA   UNL     1       0.371   2.057  20.669  1.00  0.00     0.050 Na
HETATM   19  C   UNL     1       2.886   1.581  18.889  1.00  0.00     0.261 C 
HETATM   20  C   UNL     1       3.129   2.671  19.885  1.00  0.00     0.310 C 
HETATM   21  O   UNL     1       2.139   3.029  20.725  1.00  0.00    -0.185 OA
HETATM   22  O   UNL     1       4.211   3.232  19.952  1.00  0.00    -0.261 OA
HETATM   23 NA   UNL     1       1.859   0.151  22.594  1.00  0.00     0.051 Na
HETATM   24  C   UNL     1       3.228  -2.421  22.625  1.00  0.00     0.146 C 
HETATM   25  C   UNL     1       4.136  -1.524  21.831  1.00  0.00     0.314 C 
HETATM   26  O   UNL     1       3.393  -0.470  21.446  1.00  0.00    -0.172 OA
HETATM   27  O   UNL     1       5.024  -1.185  22.596  1.00  0.00    -0.242 OA
ENDROOT
BRANCH   1  28
HETATM   28  O   UNL     1       1.018   1.881  14.320  1.00  0.00    -0.348 OA
BRANCH  28  29
HETATM   29  C   UNL     1       1.522   2.975  13.535  1.00  0.00     0.292 C 
HETATM   30  O   UNL     1       1.352   4.184  14.266  1.00  0.00    -0.348 OA
HETATM   31  C   UNL     1       1.772   5.375  13.576  1.00  0.00     0.180 C 
HETATM   32  C   UNL     1       1.461   5.390  12.043  1.00  0.00     0.187 C 
HETATM   33  C   UNL     1       0.337   4.401  11.740  1.00  0.00     0.183 C 
HETATM   34  C   UNL     1       0.799   2.990  12.153  1.00  0.00     0.204 C 
BRANCH  31  35
HETATM   35  C   UNL     1       3.261   5.726  13.849  1.00  0.00     0.203 C 
BRANCH  35  36
HETATM   36  O   UNL     1       3.528   6.126  15.175  1.00  0.00    -0.370 OA
BRANCH  36  37
HETATM   37  C   UNL     1       3.439   7.519  15.291  1.00  0.00     0.262 C 
BRANCH  37  38
HETATM   38  C   UNL     1       4.159   7.941  16.529  1.00  0.00     0.321 C 
HETATM   39  O   UNL     1       4.002   7.325  17.572  1.00  0.00    -0.260 OA
BRANCH  38  40
HETATM   40  O   UNL     1       5.005   8.985  16.491  1.00  0.00    -0.147 OA
HETATM   41 NA   UNL     1       5.135  10.111  14.829  1.00  0.00     0.000 Na
ENDBRANCH  38  40
ENDBRANCH  37  38
ENDBRANCH  36  37
ENDBRANCH  35  36
ENDBRANCH  31  35
BRANCH  32  42
HETATM   42  O   UNL     1       1.000   6.674  11.640  1.00  0.00    -0.348 OA
BRANCH  42  43
HETATM   43  C   UNL     1       0.755   7.591  12.686  1.00  0.00     0.292 C 
HETATM   44  O   UNL     1      -0.567   7.353  13.177  1.00  0.00    -0.351 OA
HETATM   45  C   UNL     1      -1.406   8.493  13.244  1.00  0.00     0.151 C 
HETATM   46  C   UNL     1      -0.701   9.659  13.975  1.00  0.00     0.068 C 
HETATM   47  C   UNL     1       0.676  10.004  13.343  1.00  0.00     0.154 C 
HETATM   48  C   UNL     1       1.054   9.053  12.187  1.00  0.00     0.205 C 
BRANCH  45  49
HETATM   49  C   UNL     1      -2.695   8.114  14.006  1.00  0.00     0.200 C 
BRANCH  49  50
HETATM   50  O   UNL     1      -2.622   6.834  14.609  1.00  0.00    -0.379 OA
BRANCH  50  51
HETATM   51  C   UNL     1      -2.893   6.872  15.997  1.00  0.00     0.281 C 
BRANCH  51  52
HETATM   52  C   UNL     1      -1.609   6.730  16.766  1.00  0.00     0.313 C 
HETATM   53  O   UNL     1      -1.390   7.420  17.750  1.00  0.00    -0.260 OA
BRANCH  52  54
HETATM   54  O   UNL     1      -0.685   5.836  16.368  1.00  0.00    -0.148 OA
HETATM   55 NA   UNL     1      -0.946   4.761  14.687  1.00  0.00     0.000 Na
ENDBRANCH  52  54
ENDBRANCH  51  52
ENDBRANCH  50  51
ENDBRANCH  49  50
ENDBRANCH  45  49
BRANCH  47  56
HETATM   56  O   UNL     1       0.748  11.351  12.946  1.00  0.00    -0.393 OA
HETATM   57  H   UNL     1       0.091  11.487  12.212  1.00  0.00     0.210 HD
ENDBRANCH  47  56
BRANCH  48  58
HETATM   58  O   UNL     1       0.313   9.450  11.041  1.00  0.00    -0.376 OA
BRANCH  58  59
HETATM   59  C   UNL     1       1.026   9.392   9.815  1.00  0.00     0.194 C 
BRANCH  59  60
HETATM   60  C   UNL     1       0.143   9.607   8.545  1.00  0.00     0.116 C 
BRANCH  60  61
HETATM   61  C   UNL     1       0.931   9.210   7.244  1.00  0.00     0.053 C 
BRANCH  61  62
HETATM   62  C   UNL     1       0.606   7.867   6.487  1.00  0.00     0.094 C 
BRANCH  62  63
HETATM   63  C   UNL     1       0.343   8.136   4.950  1.00  0.00     0.051 C 
BRANCH  63  64
HETATM   64  C   UNL     1      -0.178   6.979   4.032  1.00  0.00     0.094 C 
BRANCH  64  65
HETATM   65  C   UNL     1      -1.691   7.146   3.643  1.00  0.00     0.051 C 
BRANCH  65  66
HETATM   66  C   UNL     1      -2.484   5.819   3.808  1.00  0.00     0.094 C 
BRANCH  66  67
HETATM   67  C   UNL     1      -2.666   4.960   2.512  1.00  0.00     0.051 C 
BRANCH  67  68
HETATM   68  C   UNL     1      -3.758   5.336   1.460  1.00  0.00     0.089 C 
HETATM   69  C   UNL     1      -4.978   5.932   2.184  1.00  0.00     0.033 C 
BRANCH  68  70
HETATM   70  N   UNL     1      -3.340   6.261   0.420  1.00  0.00    -0.334 N 
HETATM   71  C   UNL     1      -4.210   7.018  -0.389  1.00  0.00     0.210 A 
HETATM   72  N   UNL     1      -3.565   7.742  -1.220  1.00  0.00    -0.254 NA
HETATM   73  C   UNL     1      -2.194   7.494  -0.985  1.00  0.00     0.150 A 
HETATM   74  C   UNL     1      -2.044   6.611  -0.000  1.00  0.00     0.082 A 
ENDBRANCH  68  70
ENDBRANCH  67  68
ENDBRANCH  66  67
BRANCH  66  75
HETATM   75  N   UNL     1      -2.012   5.023   4.951  1.00  0.00    -0.345 N 
HETATM   76  C   UNL     1      -1.383   3.829   4.939  1.00  0.00     0.209 A 
HETATM   77  N   UNL     1      -1.083   3.400   6.182  1.00  0.00    -0.255 NA
HETATM   78  C   UNL     1      -1.539   4.368   7.002  1.00  0.00     0.135 A 
HETATM   79  C   UNL     1      -2.107   5.369   6.248  1.00  0.00     0.111 A 
ENDBRANCH  66  75
ENDBRANCH  65  66
ENDBRANCH  64  65
BRANCH  64  80
HETATM   80  N   UNL     1       0.599   6.901   2.777  1.00  0.00    -0.345 N 
HETATM   81  C   UNL     1       0.936   7.893   1.927  1.00  0.00     0.209 A 
HETATM   82  N   UNL     1       1.689   7.450   0.898  1.00  0.00    -0.255 NA
HETATM   83  C   UNL     1       1.838   6.130   1.118  1.00  0.00     0.135 A 
HETATM   84  C   UNL     1       1.179   5.790   2.275  1.00  0.00     0.111 A 
ENDBRANCH  64  80
ENDBRANCH  63  64
ENDBRANCH  62  63
BRANCH  62  85
HETATM   85  N   UNL     1       1.512   6.752   6.851  1.00  0.00    -0.345 N 
HETATM   86  C   UNL     1       1.554   6.131   8.049  1.00  0.00     0.209 A 
HETATM   87  N   UNL     1       2.533   5.210   8.128  1.00  0.00    -0.255 NA
HETATM   88  C   UNL     1       3.157   5.272   6.940  1.00  0.00     0.135 A 
HETATM   89  C   UNL     1       2.552   6.232   6.164  1.00  0.00     0.111 A 
ENDBRANCH  62  85
ENDBRANCH  61  62
ENDBRANCH  60  61
BRANCH  60  90
HETATM   90  N   UNL     1      -0.501  10.943   8.501  1.00  0.00    -0.343 N 
HETATM   91  C   UNL     1      -1.440  11.418   7.649  1.00  0.00     0.111 A 
HETATM   92  C   UNL     1      -1.726  12.718   7.994  1.00  0.00     0.135 A 
HETATM   93  N   UNL     1      -0.963  13.075   9.041  1.00  0.00    -0.255 NA
HETATM   94  C   UNL     1      -0.225  11.983   9.320  1.00  0.00     0.209 A 
ENDBRANCH  60  90
ENDBRANCH  59  60
ENDBRANCH  58  59
ENDBRANCH  48  58
ENDBRANCH  42  43
ENDBRANCH  32  42
BRANCH  33  95
HETATM   95  O   UNL     1      -0.863   4.793  12.368  1.00  0.00    -0.390 OA
HETATM   96  H   UNL     1      -0.855   5.772  12.521  1.00  0.00     0.210 HD
ENDBRANCH  33  95
BRANCH  34  97
HETATM   97  O   UNL     1      -0.251   2.061  12.049  1.00  0.00    -0.388 OA
HETATM   98  H   UNL     1       0.104   1.251  11.602  1.00  0.00     0.210 HD
ENDBRANCH  34  97
ENDBRANCH  28  29
ENDBRANCH   1  28
BRANCH   3  99
HETATM   99  O   UNL     1       1.060  -0.432  12.954  1.00  0.00    -0.390 OA
HETATM  100  H   UNL     1       1.773  -0.640  12.295  1.00  0.00     0.210 HD
ENDBRANCH   3  99
BRANCH   4 101
HETATM  101  O   UNL     1      -0.545  -0.663  15.303  1.00  0.00    -0.376 OA
BRANCH 101 102
HETATM  102  C   UNL     1      -1.499  -1.207  14.391  1.00  0.00     0.194 C 
BRANCH 102 103
HETATM  103  C   UNL     1      -1.606  -2.788  14.468  1.00  0.00     0.116 C 
BRANCH 103 104
HETATM  104  N   UNL     1      -2.662  -3.229  15.414  1.00  0.00    -0.343 N 
HETATM  105  C   UNL     1      -2.532  -3.912  16.573  1.00  0.00     0.111 A 
HETATM  106  C   UNL     1      -3.785  -4.111  17.108  1.00  0.00     0.135 A 
HETATM  107  N   UNL     1      -4.704  -3.581  16.284  1.00  0.00    -0.255 NA
HETATM  108  C   UNL     1      -3.996  -3.061  15.262  1.00  0.00     0.209 A 
ENDBRANCH 103 104
BRANCH 103 109
HETATM  109  C   UNL     1      -1.712  -3.399  13.017  1.00  0.00     0.053 C 
BRANCH 109 110
HETATM  110  C   UNL     1      -2.099  -4.902  12.678  1.00  0.00     0.094 C 
BRANCH 110 111
HETATM  111  C   UNL     1      -1.990  -5.291  11.142  1.00  0.00     0.051 C 
BRANCH 111 112
HETATM  112  C   UNL     1      -1.065  -6.504  10.711  1.00  0.00     0.094 C 
BRANCH 112 113
HETATM  113  N   UNL     1      -0.332  -6.254   9.457  1.00  0.00    -0.345 N 
HETATM  114  C   UNL     1      -0.803  -5.686   8.330  1.00  0.00     0.111 A 
HETATM  115  C   UNL     1       0.198  -5.725   7.383  1.00  0.00     0.135 A 
HETATM  116  N   UNL     1       1.280  -6.332   7.904  1.00  0.00    -0.255 NA
HETATM  117  C   UNL     1       0.925  -6.649   9.164  1.00  0.00     0.209 A 
ENDBRANCH 112 113
BRANCH 112 118
HETATM  118  C   UNL     1      -1.808  -7.884  10.539  1.00  0.00     0.051 C 
BRANCH 118 119
HETATM  119  C   UNL     1      -1.570  -8.837  11.751  1.00  0.00     0.094 C 
BRANCH 119 120
HETATM  120  C   UNL     1      -2.640  -9.961  11.985  1.00  0.00     0.051 C 
BRANCH 120 121
HETATM  121  C   UNL     1      -4.089  -9.605  12.467  1.00  0.00     0.089 C 
HETATM  122  C   UNL     1      -5.079  -9.791  11.304  1.00  0.00     0.033 C 
BRANCH 121 123
HETATM  123  N   UNL     1      -4.577 -10.356  13.612  1.00  0.00    -0.334 N 
HETATM  124  C   UNL     1      -4.673 -11.748  13.793  1.00  0.00     0.082 A 
HETATM  125  C   UNL     1      -5.196 -11.932  15.005  1.00  0.00     0.150 A 
HETATM  126  N   UNL     1      -5.453 -10.688  15.625  1.00  0.00    -0.254 NA
HETATM  127  C   UNL     1      -5.088  -9.789  14.796  1.00  0.00     0.210 A 
ENDBRANCH 121 123
ENDBRANCH 120 121
ENDBRANCH 119 120
BRANCH 119 128
HETATM  128  N   UNL     1      -0.202  -9.393  11.717  1.00  0.00    -0.345 N 
HETATM  129  C   UNL     1       0.676  -9.497  12.740  1.00  0.00     0.209 A 
HETATM  130  N   UNL     1       1.832 -10.079  12.364  1.00  0.00    -0.255 NA
HETATM  131  C   UNL     1       1.668 -10.354  11.055  1.00  0.00     0.135 A 
HETATM  132  C   UNL     1       0.417  -9.938  10.654  1.00  0.00     0.111 A 
ENDBRANCH 119 128
ENDBRANCH 118 119
ENDBRANCH 112 118
ENDBRANCH 111 112
ENDBRANCH 110 111
BRANCH 110 133
HETATM  133  N   UNL     1      -1.552  -5.876  13.660  1.00  0.00    -0.345 N 
HETATM  134  C   UNL     1      -0.304  -5.997  14.153  1.00  0.00     0.111 A 
HETATM  135  C   UNL     1      -0.301  -6.988  15.108  1.00  0.00     0.135 A 
HETATM  136  N   UNL     1      -1.548  -7.460  15.256  1.00  0.00    -0.255 NA
HETATM  137  C   UNL     1      -2.288  -6.751  14.377  1.00  0.00     0.209 A 
ENDBRANCH 110 133
ENDBRANCH 109 110
ENDBRANCH 103 109
ENDBRANCH 102 103
ENDBRANCH 101 102
ENDBRANCH   4 101
BRANCH  13 138
HETATM  138  O   UNL     1       0.894  -4.996  18.242  1.00  0.00    -0.390 OA
HETATM  139  H   UNL     1       0.444  -5.677  17.677  1.00  0.00     0.210 HD
ENDBRANCH  13 138
BRANCH  17 140
HETATM  140  O   UNL     1       3.201  -6.739  17.490  1.00  0.00    -0.388 OA
HETATM  141  H   UNL     1       2.248  -7.012  17.489  1.00  0.00     0.210 HD
ENDBRANCH  17 140
BRANCH  15 142
HETATM  142  O   UNL     1       3.057  -6.435  20.115  1.00  0.00    -0.348 OA
BRANCH 142 143
HETATM  143  C   UNL     1       2.593  -6.199  21.443  1.00  0.00     0.187 C 
HETATM  144  C   UNL     1       1.394  -7.164  21.826  1.00  0.00     0.177 C 
HETATM  145  O   UNL     1       1.308  -7.444  23.233  1.00  0.00    -0.378 OA
HETATM  146  C   UNL     1       1.776  -6.378  24.024  1.00  0.00     0.202 C 
HETATM  147  C   UNL     1       3.307  -6.235  23.879  1.00  0.00     0.173 C 
HETATM  148  C   UNL     1       3.756  -6.495  22.410  1.00  0.00     0.180 C 
BRANCH 144 149
HETATM  149  C   UNL     1       0.033  -6.649  21.323  1.00  0.00     0.215 C 
BRANCH 149 150
HETATM  150  O   UNL     1      -0.067  -5.310  20.929  1.00  0.00    -0.303 OA
BRANCH 150 151
HETATM  151  C   UNL     1      -0.636  -4.145  21.378  1.00  0.00     0.323 C 
HETATM  152  C   UNL     1      -2.142  -4.103  21.398  1.00  0.00     0.147 C 
HETATM  153  O   UNL     1      -0.277  -3.950  22.528  1.00  0.00    -0.241 OA
BRANCH 151 154
HETATM  154  O   UNL     1      -0.259  -3.119  20.590  1.00  0.00    -0.132 OA
HETATM  155 NA   UNL     1      -0.598  -3.140  18.601  1.00  0.00     0.000 Na
ENDBRANCH 151 154
ENDBRANCH 150 151
ENDBRANCH 149 150
ENDBRANCH 144 149
BRANCH 147 156
HETATM  156  O   UNL     1       4.022  -7.051  24.777  1.00  0.00    -0.391 OA
HETATM  157  H   UNL     1       4.011  -6.617  25.669  1.00  0.00     0.210 HD
ENDBRANCH 147 156
BRANCH 148 158
HETATM  158  O   UNL     1       4.222  -7.814  22.218  1.00  0.00    -0.390 OA
HETATM  159  H   UNL     1       4.394  -8.235  23.097  1.00  0.00     0.210 HD
ENDBRANCH 148 158
ENDBRANCH 142 143
ENDBRANCH  15 142
TORSDOF 60
ENDMDL
MODEL 5
REMARK VINA RESULT:      -7.7      3.210     15.698
REMARK WARNING: 32 MAX_TORS EXCEEDED!!!
REMARK  60 active torsions:
REMARK  status: ('A' for Active; 'I' for Inactive)
REMARK    1  A    between atoms: C_1  and  O_30 
REMARK    2  A    between atoms: C_3  and  O_9 
REMARK    3  A    between atoms: C_4  and  O_11 
REMARK    4  A    between atoms: O_11  and  C_106 
REMARK    5  A    between atoms: O_14  and  C_18 
REMARK    6  A    between atoms: O_19  and  C_22 
REMARK    7  A    between atoms: O_19  and  C_42 
REMARK    8  A    between atoms: O_21  and  C_24 
REMARK    9  A    between atoms: O_26  and  C_29 
REMARK   10  A    between atoms: C_28  and  C_34 
REMARK   11  A    between atoms: O_30  and  C_33 
REMARK   12  A    between atoms: C_31  and  O_53 
REMARK   13  A    between atoms: O_32  and  C_35 
REMARK   14  A    between atoms: C_34  and  O_59 
REMARK   15  A    between atoms: O_37  and  C_41 
REMARK   16  A    between atoms: C_39  and  C_45 
REMARK   17  A    between atoms: O_40  and  C_45 
REMARK   18  A    between atoms: O_40  and  C_157 
REMARK   19  A    between atoms: O_43  and  C_46 
REMARK   20  A    between atoms: O_48  and  C_52 
REMARK   21  A    between atoms: C_50  and  C_57 
REMARK   22  A    between atoms: O_51  and  C_57 
REMARK   23  A    between atoms: O_51  and  C_135 
REMARK   24  A    between atoms: O_53  and  C_56 
REMARK   25  A    between atoms: O_55  and  C_58 
REMARK   26  A    between atoms: O_55  and  C_60 
REMARK   27  A    between atoms: O_59  and  C_141 
REMARK   28  A    between atoms: C_60  and  C_61 
REMARK   29  A    between atoms: C_61  and  C_62 
REMARK   30  A    between atoms: C_61  and  N_75 
REMARK   31  A    between atoms: C_62  and  C_63 
REMARK   32  A    between atoms: C_63  and  C_64 
REMARK   33  A    between atoms: C_63  and  N_89 
REMARK   34  A    between atoms: C_64  and  C_65 
REMARK   35  A    between atoms: C_65  and  C_66 
REMARK   36  A    between atoms: C_65  and  N_79 
REMARK   37  A    between atoms: C_66  and  C_67 
REMARK   38  A    between atoms: C_67  and  C_68 
REMARK   39  A    between atoms: C_67  and  N_94 
REMARK   40  A    between atoms: C_68  and  C_69 
REMARK   41  A    between atoms: C_69  and  N_84 
REMARK   42  A    between atoms: N_101  and  C_107 
REMARK   43  A    between atoms: C_106  and  C_107 
REMARK   44  A    between atoms: C_107  and  C_114 
REMARK   45  A    between atoms: N_110  and  C_116 
REMARK   46  A    between atoms: C_112  and  C_116 
REMARK   47  A    between atoms: C_112  and  C_118 
REMARK   48  A    between atoms: N_113  and  C_123 
REMARK   49  A    between atoms: C_114  and  C_118 
REMARK   50  A    between atoms: C_116  and  C_120 
REMARK   51  A    between atoms: N_117  and  C_118 
REMARK   52  A    between atoms: C_120  and  C_125 
REMARK   53  A    between atoms: C_123  and  C_124 
REMARK   54  A    between atoms: C_124  and  C_125 
REMARK   55  A    between atoms: C_125  and  N_128 
REMARK   56  A    between atoms: C_135  and  C_136 
REMARK   57  A    between atoms: C_136  and  O_138 
REMARK   58  A    between atoms: C_141  and  C_142 
REMARK   59  A    between atoms: C_142  and  O_143 
REMARK   60  A    between atoms: C_157  and  O_158 
ROOT
HETATM    1  C   UNL     1      -2.444   6.764  14.431  1.00  0.00     0.187 C 
HETATM    2  C   UNL     1      -1.154   7.002  15.315  1.00  0.00     0.180 C 
HETATM    3  C   UNL     1      -2.600   7.774  13.247  1.00  0.00     0.183 C 
HETATM    4  C   UNL     1      -1.230   8.192  12.623  1.00  0.00     0.208 C 
HETATM    5  C   UNL     1      -0.456   8.721  13.867  1.00  0.00     0.292 C 
HETATM    6  C   UNL     1      -1.421   7.738  16.669  1.00  0.00     0.203 C 
HETATM    7  O   UNL     1      -0.328   7.887  17.579  1.00  0.00    -0.370 OA
HETATM    8  O   UNL     1      -0.052   7.589  14.612  1.00  0.00    -0.348 OA
HETATM    9  O   UNL     1       0.658   9.571  13.550  1.00  0.00    -0.348 OA
HETATM   10  O   UNL     1       2.373  12.430  14.912  1.00  0.00    -0.348 OA
HETATM   11  C   UNL     1       1.636  11.236  15.158  1.00  0.00     0.180 C 
HETATM   12  O   UNL     1       2.072  11.631  17.517  1.00  0.00    -0.304 OA
HETATM   13  C   UNL     1       0.538  11.990  12.974  1.00  0.00     0.183 C 
HETATM   14  C   UNL     1       0.542  10.916  14.085  1.00  0.00     0.187 C 
HETATM   15  C   UNL     1       1.638  13.616  14.625  1.00  0.00     0.292 C 
HETATM   16  C   UNL     1       1.097  11.255  16.602  1.00  0.00     0.215 C 
HETATM   17  C   UNL     1       0.419  13.357  13.695  1.00  0.00     0.204 C 
HETATM   18 NA   UNL     1       3.502   5.897  16.221  1.00  0.00     0.050 Na
HETATM   19  C   UNL     1       0.845   7.225  17.166  1.00  0.00     0.261 C 
HETATM   20  C   UNL     1       1.532   6.531  18.299  1.00  0.00     0.310 C 
HETATM   21  O   UNL     1       2.689   5.880  18.068  1.00  0.00    -0.185 OA
HETATM   22  O   UNL     1       1.067   6.554  19.427  1.00  0.00    -0.261 OA
HETATM   23 NA   UNL     1       4.730   8.532  17.266  1.00  0.00     0.051 Na
HETATM   24  C   UNL     1       4.378  11.420  17.095  1.00  0.00     0.146 C 
HETATM   25  C   UNL     1       3.191  10.944  17.886  1.00  0.00     0.314 C 
HETATM   26  O   UNL     1       3.083   9.623  17.657  1.00  0.00    -0.172 OA
HETATM   27  O   UNL     1       3.453  11.173  19.055  1.00  0.00    -0.242 OA
ENDROOT
BRANCH   1  28
HETATM   28  O   UNL     1      -2.441   5.430  13.935  1.00  0.00    -0.348 OA
BRANCH  28  29
HETATM   29  C   UNL     1      -1.810   4.486  14.817  1.00  0.00     0.292 C 
HETATM   30  O   UNL     1      -0.910   3.682  14.063  1.00  0.00    -0.348 OA
HETATM   31  C   UNL     1      -0.239   2.654  14.814  1.00  0.00     0.180 C 
HETATM   32  C   UNL     1      -1.119   1.956  15.903  1.00  0.00     0.187 C 
HETATM   33  C   UNL     1      -2.596   2.145  15.563  1.00  0.00     0.183 C 
HETATM   34  C   UNL     1      -2.908   3.654  15.547  1.00  0.00     0.204 C 
BRANCH  31  35
HETATM   35  C   UNL     1       1.110   3.141  15.413  1.00  0.00     0.203 C 
BRANCH  35  36
HETATM   36  O   UNL     1       2.245   2.483  14.894  1.00  0.00    -0.370 OA
BRANCH  36  37
HETATM   37  C   UNL     1       2.696   3.130  13.737  1.00  0.00     0.262 C 
BRANCH  37  38
HETATM   38  C   UNL     1       2.386   2.267  12.558  1.00  0.00     0.321 C 
HETATM   39  O   UNL     1       2.408   2.736  11.430  1.00  0.00    -0.260 OA
BRANCH  38  40
HETATM   40  O   UNL     1       2.109   0.963  12.734  1.00  0.00    -0.147 OA
HETATM   41 NA   UNL     1       3.513  -0.268  13.481  1.00  0.00     0.000 Na
ENDBRANCH  38  40
ENDBRANCH  37  38
ENDBRANCH  36  37
ENDBRANCH  35  36
ENDBRANCH  31  35
BRANCH  32  42
HETATM   42  O   UNL     1      -0.876   0.554  15.917  1.00  0.00    -0.348 OA
BRANCH  42  43
HETATM   43  C   UNL     1      -1.156  -0.102  17.136  1.00  0.00     0.292 C 
HETATM   44  O   UNL     1      -0.256   0.405  18.124  1.00  0.00    -0.351 OA
HETATM   45  C   UNL     1       0.469  -0.575  18.848  1.00  0.00     0.151 C 
HETATM   46  C   UNL     1      -0.476  -1.663  19.406  1.00  0.00     0.068 C 
HETATM   47  C   UNL     1      -1.353  -2.309  18.299  1.00  0.00     0.154 C 
HETATM   48  C   UNL     1      -1.134  -1.659  16.915  1.00  0.00     0.205 C 
BRANCH  45  49
HETATM   49  C   UNL     1       1.204   0.117  20.016  1.00  0.00     0.200 C 
BRANCH  49  50
HETATM   50  O   UNL     1       2.112   1.114  19.584  1.00  0.00    -0.379 OA
BRANCH  50  51
HETATM   51  C   UNL     1       3.461   0.756  19.815  1.00  0.00     0.281 C 
BRANCH  51  52
HETATM   52  C   UNL     1       4.315   1.247  18.679  1.00  0.00     0.313 C 
HETATM   53  O   UNL     1       3.833   1.443  17.574  1.00  0.00    -0.260 OA
BRANCH  52  54
HETATM   54  O   UNL     1       5.628   1.470  18.875  1.00  0.00    -0.148 OA
HETATM   55 NA   UNL     1       6.950  -0.047  18.835  1.00  0.00     0.000 Na
ENDBRANCH  52  54
ENDBRANCH  51  52
ENDBRANCH  50  51
ENDBRANCH  49  50
ENDBRANCH  45  49
BRANCH  47  56
HETATM   56  O   UNL     1      -1.186  -3.705  18.244  1.00  0.00    -0.393 OA
HETATM   57  H   UNL     1      -2.033  -4.098  17.901  1.00  0.00     0.210 HD
ENDBRANCH  47  56
BRANCH  48  58
HETATM   58  O   UNL     1       0.086  -2.164  16.388  1.00  0.00    -0.376 OA
BRANCH  58  59
HETATM   59  C   UNL     1       0.021  -2.607  15.040  1.00  0.00     0.194 C 
BRANCH  59  60
HETATM   60  C   UNL     1       0.587  -4.043  14.806  1.00  0.00     0.116 C 
BRANCH  60  61
HETATM   61  C   UNL     1      -0.464  -4.940  14.057  1.00  0.00     0.053 C 
BRANCH  61  62
HETATM   62  C   UNL     1      -1.793  -4.313  13.485  1.00  0.00     0.094 C 
BRANCH  62  63
HETATM   63  C   UNL     1      -2.192  -4.994  12.114  1.00  0.00     0.051 C 
BRANCH  63  64
HETATM   64  C   UNL     1      -1.501  -6.328  11.672  1.00  0.00     0.094 C 
BRANCH  64  65
HETATM   65  C   UNL     1      -2.523  -7.502  11.463  1.00  0.00     0.051 C 
BRANCH  65  66
HETATM   66  C   UNL     1      -2.024  -8.829  12.101  1.00  0.00     0.094 C 
BRANCH  66  67
HETATM   67  C   UNL     1      -0.844  -8.703  13.122  1.00  0.00     0.051 C 
BRANCH  67  68
HETATM   68  C   UNL     1       0.247  -9.817  13.211  1.00  0.00     0.089 C 
HETATM   69  C   UNL     1       1.120  -9.575  14.454  1.00  0.00     0.033 C 
BRANCH  68  70
HETATM   70  N   UNL     1      -0.247 -11.184  13.251  1.00  0.00    -0.334 N 
HETATM   71  C   UNL     1      -0.158 -12.109  12.193  1.00  0.00     0.210 A 
HETATM   72  N   UNL     1      -0.678 -13.232  12.509  1.00  0.00    -0.254 NA
HETATM   73  C   UNL     1      -1.142 -13.098  13.837  1.00  0.00     0.150 A 
HETATM   74  C   UNL     1      -0.885 -11.875  14.297  1.00  0.00     0.082 A 
ENDBRANCH  68  70
ENDBRANCH  67  68
ENDBRANCH  66  67
BRANCH  66  75
HETATM   75  N   UNL     1      -3.129  -9.654  12.614  1.00  0.00    -0.345 N 
HETATM   76  C   UNL     1      -3.692 -10.745  12.053  1.00  0.00     0.209 A 
HETATM   77  N   UNL     1      -4.678 -11.257  12.818  1.00  0.00    -0.255 NA
HETATM   78  C   UNL     1      -4.729 -10.456  13.900  1.00  0.00     0.135 A 
HETATM   79  C   UNL     1      -3.775  -9.471  13.780  1.00  0.00     0.111 A 
ENDBRANCH  66  75
ENDBRANCH  65  66
ENDBRANCH  64  65
BRANCH  64  80
HETATM   80  N   UNL     1      -0.759  -6.152  10.406  1.00  0.00    -0.345 N 
HETATM   81  C   UNL     1       0.307  -6.841   9.946  1.00  0.00     0.209 A 
HETATM   82  N   UNL     1       0.695  -6.422   8.723  1.00  0.00    -0.255 NA
HETATM   83  C   UNL     1      -0.167  -5.440   8.400  1.00  0.00     0.135 A 
HETATM   84  C   UNL     1      -1.067  -5.277   9.426  1.00  0.00     0.111 A 
ENDBRANCH  64  80
ENDBRANCH  63  64
ENDBRANCH  62  63
BRANCH  62  85
HETATM   85  N   UNL     1      -2.851  -4.142  14.509  1.00  0.00    -0.345 N 
HETATM   86  C   UNL     1      -3.716  -3.107  14.581  1.00  0.00     0.209 A 
HETATM   87  N   UNL     1      -4.515  -3.166  15.663  1.00  0.00    -0.255 NA
HETATM   88  C   UNL     1      -4.118  -4.268  16.321  1.00  0.00     0.135 A 
HETATM   89  C   UNL     1      -3.083  -4.855  15.632  1.00  0.00     0.111 A 
ENDBRANCH  62  85
ENDBRANCH  61  62
ENDBRANCH  60  61
BRANCH  60  90
HETATM   90  N   UNL     1       1.165  -4.650  16.029  1.00  0.00    -0.343 N 
HETATM   91  C   UNL     1       2.102  -4.160  16.874  1.00  0.00     0.111 A 
HETATM   92  C   UNL     1       2.326  -5.086  17.865  1.00  0.00     0.135 A 
HETATM   93  N   UNL     1       1.556  -6.165  17.644  1.00  0.00    -0.255 NA
HETATM   94  C   UNL     1       0.871  -5.876  16.521  1.00  0.00     0.209 A 
ENDBRANCH  60  90
ENDBRANCH  59  60
ENDBRANCH  58  59
ENDBRANCH  48  58
ENDBRANCH  42  43
ENDBRANCH  32  42
BRANCH  33  95
HETATM   95  O   UNL     1      -2.922   1.502  14.351  1.00  0.00    -0.390 OA
HETATM   96  H   UNL     1      -2.301   1.799  13.639  1.00  0.00     0.210 HD
ENDBRANCH  33  95
BRANCH  34  97
HETATM   97  O   UNL     1      -4.212   3.899  15.083  1.00  0.00    -0.388 OA
HETATM   98  H   UNL     1      -4.429   4.847  15.273  1.00  0.00     0.210 HD
ENDBRANCH  34  97
ENDBRANCH  28  29
ENDBRANCH   1  28
BRANCH   3  99
HETATM   99  O   UNL     1      -3.480   7.270  12.276  1.00  0.00    -0.390 OA
HETATM  100  H   UNL     1      -3.296   7.765  11.435  1.00  0.00     0.210 HD
ENDBRANCH   3  99
BRANCH   4 101
HETATM  101  O   UNL     1      -0.653   7.066  11.932  1.00  0.00    -0.376 OA
BRANCH 101 102
HETATM  102  C   UNL     1      -0.227   7.333  10.596  1.00  0.00     0.194 C 
BRANCH 102 103
HETATM  103  C   UNL     1       1.166   8.090  10.525  1.00  0.00     0.116 C 
BRANCH 103 104
HETATM  104  N   UNL     1       2.270   7.283  11.105  1.00  0.00    -0.343 N 
HETATM  105  C   UNL     1       2.810   7.348  12.342  1.00  0.00     0.111 A 
HETATM  106  C   UNL     1       3.819   6.416  12.429  1.00  0.00     0.135 A 
HETATM  107  N   UNL     1       3.935   5.781  11.251  1.00  0.00    -0.255 NA
HETATM  108  C   UNL     1       2.989   6.333  10.464  1.00  0.00     0.209 A 
ENDBRANCH 103 104
BRANCH 103 109
HETATM  109  C   UNL     1       1.425   8.621   9.062  1.00  0.00     0.053 C 
BRANCH 109 110
HETATM  110  C   UNL     1       0.304   9.117   8.051  1.00  0.00     0.094 C 
BRANCH 110 111
HETATM  111  C   UNL     1      -0.715   7.993   7.578  1.00  0.00     0.051 C 
BRANCH 111 112
HETATM  112  C   UNL     1      -0.358   7.103   6.317  1.00  0.00     0.094 C 
BRANCH 112 113
HETATM  113  N   UNL     1       0.956   6.446   6.427  1.00  0.00    -0.345 N 
HETATM  114  C   UNL     1       2.024   6.605   5.621  1.00  0.00     0.111 A 
HETATM  115  C   UNL     1       3.009   5.738   6.044  1.00  0.00     0.135 A 
HETATM  116  N   UNL     1       2.556   5.027   7.093  1.00  0.00    -0.255 NA
HETATM  117  C   UNL     1       1.303   5.474   7.298  1.00  0.00     0.209 A 
ENDBRANCH 112 113
BRANCH 112 118
HETATM  118  C   UNL     1      -0.375   7.864   4.935  1.00  0.00     0.051 C 
BRANCH 118 119
HETATM  119  C   UNL     1      -0.950   6.984   3.784  1.00  0.00     0.094 C 
BRANCH 119 120
HETATM  120  C   UNL     1      -2.513   6.902   3.673  1.00  0.00     0.051 C 
BRANCH 120 121
HETATM  121  C   UNL     1      -3.217   5.592   3.176  1.00  0.00     0.089 C 
HETATM  122  C   UNL     1      -4.037   5.896   1.910  1.00  0.00     0.033 C 
BRANCH 121 123
HETATM  123  N   UNL     1      -2.338   4.469   2.894  1.00  0.00    -0.334 N 
HETATM  124  C   UNL     1      -1.739   3.556   3.783  1.00  0.00     0.082 A 
HETATM  125  C   UNL     1      -1.015   2.726   3.034  1.00  0.00     0.150 A 
HETATM  126  N   UNL     1      -1.118   3.075   1.668  1.00  0.00    -0.254 NA
HETATM  127  C   UNL     1      -1.888   4.091   1.613  1.00  0.00     0.210 A 
ENDBRANCH 121 123
ENDBRANCH 120 121
ENDBRANCH 119 120
BRANCH 119 128
HETATM  128  N   UNL     1      -0.335   7.347   2.492  1.00  0.00    -0.345 N 
HETATM  129  C   UNL     1       0.885   6.995   2.025  1.00  0.00     0.209 A 
HETATM  130  N   UNL     1       1.119   7.481   0.791  1.00  0.00    -0.255 NA
HETATM  131  C   UNL     1      -0.000   8.159   0.470  1.00  0.00     0.135 A 
HETATM  132  C   UNL     1      -0.899   8.076   1.511  1.00  0.00     0.111 A 
ENDBRANCH 119 128
ENDBRANCH 118 119
ENDBRANCH 112 118
ENDBRANCH 111 112
ENDBRANCH 110 111
BRANCH 110 133
HETATM  133  N   UNL     1      -0.274  10.435   8.428  1.00  0.00    -0.345 N 
HETATM  134  C   UNL     1      -0.545  10.942   9.646  1.00  0.00     0.111 A 
HETATM  135  C   UNL     1      -0.984  12.238   9.497  1.00  0.00     0.135 A 
HETATM  136  N   UNL     1      -0.945  12.567   8.197  1.00  0.00    -0.255 NA
HETATM  137  C   UNL     1      -0.491  11.458   7.577  1.00  0.00     0.209 A 
ENDBRANCH 110 133
ENDBRANCH 109 110
ENDBRANCH 103 109
ENDBRANCH 102 103
ENDBRANCH 101 102
ENDBRANCH   4 101
BRANCH  13 138
HETATM  138  O   UNL     1       1.713  11.945  12.206  1.00  0.00    -0.390 OA
HETATM  139  H   UNL     1       1.918  10.985  12.061  1.00  0.00     0.210 HD
ENDBRANCH  13 138
BRANCH  17 140
HETATM  140  O   UNL     1       0.176  14.432  12.820  1.00  0.00    -0.388 OA
HETATM  141  H   UNL     1      -0.352  15.111  13.313  1.00  0.00     0.210 HD
ENDBRANCH  17 140
BRANCH  15 142
HETATM  142  O   UNL     1       2.558  14.480  13.971  1.00  0.00    -0.348 OA
BRANCH 142 143
HETATM  143  C   UNL     1       3.179  15.446  14.816  1.00  0.00     0.187 C 
HETATM  144  C   UNL     1       4.205  16.353  14.018  1.00  0.00     0.177 C 
HETATM  145  O   UNL     1       4.368  17.667  14.576  1.00  0.00    -0.378 OA
HETATM  146  C   UNL     1       4.183  17.685  15.972  1.00  0.00     0.202 C 
HETATM  147  C   UNL     1       2.700  17.435  16.320  1.00  0.00     0.173 C 
HETATM  148  C   UNL     1       2.075  16.369  15.372  1.00  0.00     0.180 C 
BRANCH 144 149
HETATM  149  C   UNL     1       5.585  15.690  13.860  1.00  0.00     0.215 C 
BRANCH 149 150
HETATM  150  O   UNL     1       5.782  14.421  14.414  1.00  0.00    -0.303 OA
BRANCH 150 151
HETATM  151  C   UNL     1       6.375  13.231  14.077  1.00  0.00     0.323 C 
HETATM  152  C   UNL     1       7.272  13.253  12.867  1.00  0.00     0.147 C 
HETATM  153  O   UNL     1       7.072  12.861  15.009  1.00  0.00    -0.241 OA
BRANCH 151 154
HETATM  154  O   UNL     1       5.430  12.309  13.806  1.00  0.00    -0.132 OA
HETATM  155 NA   UNL     1       3.786  12.773  12.731  1.00  0.00     0.000 Na
ENDBRANCH 151 154
ENDBRANCH 150 151
ENDBRANCH 149 150
ENDBRANCH 144 149
BRANCH 147 156
HETATM  156  O   UNL     1       1.931  18.615  16.328  1.00  0.00    -0.391 OA
HETATM  157  H   UNL     1       1.292  18.565  17.086  1.00  0.00     0.210 HD
ENDBRANCH 147 156
BRANCH 148 158
HETATM  158  O   UNL     1       1.354  16.954  14.309  1.00  0.00    -0.390 OA
HETATM  159  H   UNL     1       1.364  16.346  13.528  1.00  0.00     0.210 HD
ENDBRANCH 148 158
ENDBRANCH 142 143
ENDBRANCH  15 142
TORSDOF 60
ENDMDL
MODEL 6
REMARK VINA RESULT:      -7.7      5.030     12.383
REMARK WARNING: 32 MAX_TORS EXCEEDED!!!
REMARK  60 active torsions:
REMARK  status: ('A' for Active; 'I' for Inactive)
REMARK    1  A    between atoms: C_1  and  O_30 
REMARK    2  A    between atoms: C_3  and  O_9 
REMARK    3  A    between atoms: C_4  and  O_11 
REMARK    4  A    between atoms: O_11  and  C_106 
REMARK    5  A    between atoms: O_14  and  C_18 
REMARK    6  A    between atoms: O_19  and  C_22 
REMARK    7  A    between atoms: O_19  and  C_42 
REMARK    8  A    between atoms: O_21  and  C_24 
REMARK    9  A    between atoms: O_26  and  C_29 
REMARK   10  A    between atoms: C_28  and  C_34 
REMARK   11  A    between atoms: O_30  and  C_33 
REMARK   12  A    between atoms: C_31  and  O_53 
REMARK   13  A    between atoms: O_32  and  C_35 
REMARK   14  A    between atoms: C_34  and  O_59 
REMARK   15  A    between atoms: O_37  and  C_41 
REMARK   16  A    between atoms: C_39  and  C_45 
REMARK   17  A    between atoms: O_40  and  C_45 
REMARK   18  A    between atoms: O_40  and  C_157 
REMARK   19  A    between atoms: O_43  and  C_46 
REMARK   20  A    between atoms: O_48  and  C_52 
REMARK   21  A    between atoms: C_50  and  C_57 
REMARK   22  A    between atoms: O_51  and  C_57 
REMARK   23  A    between atoms: O_51  and  C_135 
REMARK   24  A    between atoms: O_53  and  C_56 
REMARK   25  A    between atoms: O_55  and  C_58 
REMARK   26  A    between atoms: O_55  and  C_60 
REMARK   27  A    between atoms: O_59  and  C_141 
REMARK   28  A    between atoms: C_60  and  C_61 
REMARK   29  A    between atoms: C_61  and  C_62 
REMARK   30  A    between atoms: C_61  and  N_75 
REMARK   31  A    between atoms: C_62  and  C_63 
REMARK   32  A    between atoms: C_63  and  C_64 
REMARK   33  A    between atoms: C_63  and  N_89 
REMARK   34  A    between atoms: C_64  and  C_65 
REMARK   35  A    between atoms: C_65  and  C_66 
REMARK   36  A    between atoms: C_65  and  N_79 
REMARK   37  A    between atoms: C_66  and  C_67 
REMARK   38  A    between atoms: C_67  and  C_68 
REMARK   39  A    between atoms: C_67  and  N_94 
REMARK   40  A    between atoms: C_68  and  C_69 
REMARK   41  A    between atoms: C_69  and  N_84 
REMARK   42  A    between atoms: N_101  and  C_107 
REMARK   43  A    between atoms: C_106  and  C_107 
REMARK   44  A    between atoms: C_107  and  C_114 
REMARK   45  A    between atoms: N_110  and  C_116 
REMARK   46  A    between atoms: C_112  and  C_116 
REMARK   47  A    between atoms: C_112  and  C_118 
REMARK   48  A    between atoms: N_113  and  C_123 
REMARK   49  A    between atoms: C_114  and  C_118 
REMARK   50  A    between atoms: C_116  and  C_120 
REMARK   51  A    between atoms: N_117  and  C_118 
REMARK   52  A    between atoms: C_120  and  C_125 
REMARK   53  A    between atoms: C_123  and  C_124 
REMARK   54  A    between atoms: C_124  and  C_125 
REMARK   55  A    between atoms: C_125  and  N_128 
REMARK   56  A    between atoms: C_135  and  C_136 
REMARK   57  A    between atoms: C_136  and  O_138 
REMARK   58  A    between atoms: C_141  and  C_142 
REMARK   59  A    between atoms: C_142  and  O_143 
REMARK   60  A    between atoms: C_157  and  O_158 
ROOT
HETATM    1  C   UNL     1       2.997   6.967  13.900  1.00  0.00     0.187 C 
HETATM    2  C   UNL     1       1.528   6.600  14.359  1.00  0.00     0.180 C 
HETATM    3  C   UNL     1       3.749   5.800  13.180  1.00  0.00     0.183 C 
HETATM    4  C   UNL     1       2.802   4.915  12.308  1.00  0.00     0.208 C 
HETATM    5  C   UNL     1       1.718   4.487  13.340  1.00  0.00     0.292 C 
HETATM    6  C   UNL     1       1.386   6.270  15.881  1.00  0.00     0.203 C 
HETATM    7  O   UNL     1       0.073   6.044  16.400  1.00  0.00    -0.370 OA
HETATM    8  O   UNL     1       0.883   5.609  13.549  1.00  0.00    -0.348 OA
HETATM    9  O   UNL     1       0.961   3.329  12.953  1.00  0.00    -0.348 OA
HETATM   10  O   UNL     1      -0.640   0.488  14.483  1.00  0.00    -0.348 OA
HETATM   11  C   UNL     1      -0.258   1.857  14.585  1.00  0.00     0.180 C 
HETATM   12  O   UNL     1      -1.474   1.884  16.690  1.00  0.00    -0.304 OA
HETATM   13  C   UNL     1       1.686   0.958  13.187  1.00  0.00     0.183 C 
HETATM   14  C   UNL     1       1.089   2.209  13.870  1.00  0.00     0.187 C 
HETATM   15  C   UNL     1       0.333  -0.499  14.807  1.00  0.00     0.292 C 
HETATM   16  C   UNL     1      -0.303   2.293  16.062  1.00  0.00     0.215 C 
HETATM   17  C   UNL     1       1.751  -0.141  14.278  1.00  0.00     0.204 C 
HETATM   18 NA   UNL     1      -3.242   6.627  13.376  1.00  0.00     0.050 Na
HETATM   19  C   UNL     1      -0.952   6.273  15.461  1.00  0.00     0.261 C 
HETATM   20  C   UNL     1      -2.118   6.993  16.060  1.00  0.00     0.310 C 
HETATM   21  O   UNL     1      -3.194   7.255  15.293  1.00  0.00    -0.185 OA
HETATM   22  O   UNL     1      -2.113   7.337  17.231  1.00  0.00    -0.261 OA
HETATM   23 NA   UNL     1      -4.318   4.055  14.708  1.00  0.00     0.051 Na
HETATM   24  C   UNL     1      -3.454   1.392  15.518  1.00  0.00     0.146 C 
HETATM   25  C   UNL     1      -2.746   2.319  16.466  1.00  0.00     0.314 C 
HETATM   26  O   UNL     1      -2.781   3.542  15.904  1.00  0.00    -0.172 OA
HETATM   27  O   UNL     1      -3.386   2.290  17.504  1.00  0.00    -0.242 OA
ENDROOT
BRANCH   1  28
HETATM   28  O   UNL     1       2.959   8.114  13.058  1.00  0.00    -0.348 OA
BRANCH  28  29
HETATM   29  C   UNL     1       2.065   9.141  13.519  1.00  0.00     0.292 C 
HETATM   30  O   UNL     1       1.554   9.846  12.393  1.00  0.00    -0.348 OA
HETATM   31  C   UNL     1       0.677  10.942  12.710  1.00  0.00     0.180 C 
HETATM   32  C   UNL     1       1.087  11.766  13.975  1.00  0.00     0.187 C 
HETATM   33  C   UNL     1       2.573  11.559  14.260  1.00  0.00     0.183 C 
HETATM   34  C   UNL     1       2.819  10.061  14.526  1.00  0.00     0.204 C 
BRANCH  31  35
HETATM   35  C   UNL     1      -0.813  10.507  12.784  1.00  0.00     0.203 C 
BRANCH  35  36
HETATM   36  O   UNL     1      -1.201   9.978  14.033  1.00  0.00    -0.370 OA
BRANCH  36  37
HETATM   37  C   UNL     1      -2.428  10.523  14.432  1.00  0.00     0.262 C 
BRANCH  37  38
HETATM   38  C   UNL     1      -2.346  10.866  15.883  1.00  0.00     0.321 C 
HETATM   39  O   UNL     1      -1.366  10.543  16.538  1.00  0.00    -0.260 OA
BRANCH  38  40
HETATM   40  O   UNL     1      -3.340  11.558  16.467  1.00  0.00    -0.147 OA
HETATM   41 NA   UNL     1      -3.392  13.563  16.312  1.00  0.00     0.000 Na
ENDBRANCH  38  40
ENDBRANCH  37  38
ENDBRANCH  36  37
ENDBRANCH  35  36
ENDBRANCH  31  35
BRANCH  32  42
HETATM   42  O   UNL     1       0.901  13.158  13.745  1.00  0.00    -0.348 OA
BRANCH  42  43
HETATM   43  C   UNL     1      -0.327  13.692  14.192  1.00  0.00     0.292 C 
HETATM   44  O   UNL     1      -1.243  13.666  13.093  1.00  0.00    -0.351 OA
HETATM   45  C   UNL     1      -1.887  14.896  12.808  1.00  0.00     0.151 C 
HETATM   46  C   UNL     1      -2.508  15.505  14.086  1.00  0.00     0.068 C 
HETATM   47  C   UNL     1      -1.470  15.662  15.230  1.00  0.00     0.154 C 
HETATM   48  C   UNL     1      -0.082  15.099  14.853  1.00  0.00     0.205 C 
BRANCH  45  49
HETATM   49  C   UNL     1      -2.999  14.640  11.767  1.00  0.00     0.200 C 
BRANCH  49  50
HETATM   50  O   UNL     1      -2.841  13.411  11.081  1.00  0.00    -0.379 OA
BRANCH  50  51
HETATM   51  C   UNL     1      -2.553  13.589   9.708  1.00  0.00     0.281 C 
BRANCH  51  52
HETATM   52  C   UNL     1      -1.295  12.845   9.356  1.00  0.00     0.313 C 
HETATM   53  O   UNL     1      -0.275  12.994  10.012  1.00  0.00    -0.260 OA
BRANCH  52  54
HETATM   54  O   UNL     1      -1.285  12.006   8.303  1.00  0.00    -0.148 OA
HETATM   55 NA   UNL     1      -0.624  12.616   6.503  1.00  0.00     0.000 Na
ENDBRANCH  52  54
ENDBRANCH  51  52
ENDBRANCH  50  51
ENDBRANCH  49  50
ENDBRANCH  45  49
BRANCH  47  56
HETATM   56  O   UNL     1      -1.380  16.992  15.680  1.00  0.00    -0.393 OA
HETATM   57  H   UNL     1      -2.150  17.159  16.287  1.00  0.00     0.210 HD
ENDBRANCH  47  56
BRANCH  48  58
HETATM   58  O   UNL     1       0.554  16.047  14.007  1.00  0.00    -0.376 OA
BRANCH  58  59
HETATM   59  C   UNL     1       1.699  16.676  14.563  1.00  0.00     0.194 C 
BRANCH  59  60
HETATM   60  C   UNL     1       2.872  15.700  14.893  1.00  0.00     0.116 C 
BRANCH  60  61
HETATM   61  C   UNL     1       3.053  15.553  16.448  1.00  0.00     0.053 C 
BRANCH  61  62
HETATM   62  C   UNL     1       2.706  14.196  17.171  1.00  0.00     0.094 C 
BRANCH  62  63
HETATM   63  C   UNL     1       3.934  13.200  17.121  1.00  0.00     0.051 C 
BRANCH  63  64
HETATM   64  C   UNL     1       5.349  13.678  17.594  1.00  0.00     0.094 C 
BRANCH  64  65
HETATM   65  C   UNL     1       5.782  13.032  18.960  1.00  0.00     0.051 C 
BRANCH  65  66
HETATM   66  C   UNL     1       4.761  11.968  19.451  1.00  0.00     0.094 C 
BRANCH  66  67
HETATM   67  C   UNL     1       5.217  10.474  19.341  1.00  0.00     0.051 C 
BRANCH  67  68
HETATM   68  C   UNL     1       4.586   9.532  18.267  1.00  0.00     0.089 C 
HETATM   69  C   UNL     1       5.482   8.294  18.088  1.00  0.00     0.033 C 
BRANCH  68  70
HETATM   70  N   UNL     1       3.229   9.086  18.536  1.00  0.00    -0.334 N 
HETATM   71  C   UNL     1       2.869   8.115  19.490  1.00  0.00     0.210 A 
HETATM   72  N   UNL     1       1.608   7.920  19.507  1.00  0.00    -0.254 NA
HETATM   73  C   UNL     1       1.057   8.788  18.537  1.00  0.00     0.150 A 
HETATM   74  C   UNL     1       2.018   9.497  17.950  1.00  0.00     0.082 A 
ENDBRANCH  68  70
ENDBRANCH  67  68
ENDBRANCH  66  67
BRANCH  66  75
HETATM   75  N   UNL     1       4.206  12.293  20.774  1.00  0.00    -0.345 N 
HETATM   76  C   UNL     1       3.345  11.572  21.522  1.00  0.00     0.209 A 
HETATM   77  N   UNL     1       3.063  12.175  22.695  1.00  0.00    -0.255 NA
HETATM   78  C   UNL     1       3.782  13.315  22.679  1.00  0.00     0.135 A 
HETATM   79  C   UNL     1       4.489  13.389  21.501  1.00  0.00     0.111 A 
ENDBRANCH  66  75
ENDBRANCH  65  66
ENDBRANCH  64  65
BRANCH  64  80
HETATM   80  N   UNL     1       6.387  13.349  16.596  1.00  0.00    -0.345 N 
HETATM   81  C   UNL     1       6.418  12.332  15.709  1.00  0.00     0.209 A 
HETATM   82  N   UNL     1       7.515  12.371  14.925  1.00  0.00    -0.255 NA
HETATM   83  C   UNL     1       8.194  13.462  15.328  1.00  0.00     0.135 A 
HETATM   84  C   UNL     1       7.501  14.070  16.347  1.00  0.00     0.111 A 
ENDBRANCH  64  80
ENDBRANCH  63  64
ENDBRANCH  62  63
BRANCH  62  85
HETATM   85  N   UNL     1       2.017  14.381  18.470  1.00  0.00    -0.345 N 
HETATM   86  C   UNL     1       2.230  15.394  19.337  1.00  0.00     0.209 A 
HETATM   87  N   UNL     1       1.526  15.265  20.478  1.00  0.00    -0.255 NA
HETATM   88  C   UNL     1       0.863  14.105  20.340  1.00  0.00     0.135 A 
HETATM   89  C   UNL     1       1.180  13.547  19.124  1.00  0.00     0.111 A 
ENDBRANCH  62  85
ENDBRANCH  61  62
ENDBRANCH  60  61
BRANCH  60  90
HETATM   90  N   UNL     1       4.117  16.008  14.148  1.00  0.00    -0.343 N 
HETATM   91  C   UNL     1       4.580  17.198  13.698  1.00  0.00     0.111 A 
HETATM   92  C   UNL     1       5.776  16.988  13.054  1.00  0.00     0.135 A 
HETATM   93  N   UNL     1       6.064  15.675  13.073  1.00  0.00    -0.255 NA
HETATM   94  C   UNL     1       5.037  15.106  13.735  1.00  0.00     0.209 A 
ENDBRANCH  60  90
ENDBRANCH  59  60
ENDBRANCH  58  59
ENDBRANCH  48  58
ENDBRANCH  42  43
ENDBRANCH  32  42
BRANCH  33  95
HETATM   95  O   UNL     1       3.364  12.069  13.210  1.00  0.00    -0.390 OA
HETATM   96  H   UNL     1       4.113  12.599  13.584  1.00  0.00     0.210 HD
ENDBRANCH  33  95
BRANCH  34  97
HETATM   97  O   UNL     1       4.192   9.783  14.636  1.00  0.00    -0.388 OA
HETATM   98  H   UNL     1       4.437   9.164  13.902  1.00  0.00     0.210 HD
ENDBRANCH  34  97
ENDBRANCH  28  29
ENDBRANCH   1  28
BRANCH   3  99
HETATM   99  O   UNL     1       4.833   6.292  12.435  1.00  0.00    -0.390 OA
HETATM  100  H   UNL     1       5.351   5.504  12.124  1.00  0.00     0.210 HD
ENDBRANCH   3  99
BRANCH   4 101
HETATM  101  O   UNL     1       2.349   5.675  11.169  1.00  0.00    -0.376 OA
BRANCH 101 102
HETATM  102  C   UNL     1       2.623   5.081   9.901  1.00  0.00     0.194 C 
BRANCH 102 103
HETATM  103  C   UNL     1       1.656   5.591   8.751  1.00  0.00     0.116 C 
BRANCH 103 104
HETATM  104  N   UNL     1       1.057   6.912   9.071  1.00  0.00    -0.343 N 
HETATM  105  C   UNL     1       1.575   8.147   8.885  1.00  0.00     0.111 A 
HETATM  106  C   UNL     1       0.669   9.076   9.343  1.00  0.00     0.135 A 
HETATM  107  N   UNL     1      -0.404   8.437   9.838  1.00  0.00    -0.255 NA
HETATM  108  C   UNL     1      -0.138   7.127   9.668  1.00  0.00     0.209 A 
ENDBRANCH 103 104
BRANCH 103 109
HETATM  109  C   UNL     1       2.380   5.509   7.352  1.00  0.00     0.053 C 
BRANCH 109 110
HETATM  110  C   UNL     1       1.688   5.747   5.942  1.00  0.00     0.094 C 
BRANCH 110 111
HETATM  111  C   UNL     1       2.688   5.812   4.708  1.00  0.00     0.051 C 
BRANCH 111 112
HETATM  112  C   UNL     1       2.106   6.010   3.248  1.00  0.00     0.094 C 
BRANCH 112 113
HETATM  113  N   UNL     1       3.154   6.223   2.233  1.00  0.00    -0.345 N 
HETATM  114  C   UNL     1       3.002   6.289   0.897  1.00  0.00     0.111 A 
HETATM  115  C   UNL     1       4.253   6.419   0.331  1.00  0.00     0.135 A 
HETATM  116  N   UNL     1       5.184   6.414   1.304  1.00  0.00    -0.255 NA
HETATM  117  C   UNL     1       4.486   6.286   2.449  1.00  0.00     0.209 A 
ENDBRANCH 112 113
BRANCH 112 118
HETATM  118  C   UNL     1       1.073   7.191   3.093  1.00  0.00     0.051 C 
BRANCH 118 119
HETATM  119  C   UNL     1      -0.306   6.700   2.554  1.00  0.00     0.094 C 
BRANCH 119 120
HETATM  120  C   UNL     1      -1.574   7.111   3.384  1.00  0.00     0.051 C 
BRANCH 120 121
HETATM  121  C   UNL     1      -2.866   6.223   3.372  1.00  0.00     0.089 C 
HETATM  122  C   UNL     1      -3.653   6.441   4.676  1.00  0.00     0.033 C 
BRANCH 121 123
HETATM  123  N   UNL     1      -3.767   6.434   2.251  1.00  0.00    -0.334 N 
HETATM  124  C   UNL     1      -3.788   7.473   1.302  1.00  0.00     0.082 A 
HETATM  125  C   UNL     1      -4.814   7.218   0.492  1.00  0.00     0.150 A 
HETATM  126  N   UNL     1      -5.476   6.034   0.889  1.00  0.00    -0.254 NA
HETATM  127  C   UNL     1      -4.852   5.599   1.914  1.00  0.00     0.210 A 
ENDBRANCH 121 123
ENDBRANCH 120 121
ENDBRANCH 119 120
BRANCH 119 128
HETATM  128  N   UNL     1      -0.462   7.043   1.127  1.00  0.00    -0.345 N 
HETATM  129  C   UNL     1      -0.306   8.253   0.542  1.00  0.00     0.209 A 
HETATM  130  N   UNL     1      -0.501   8.205  -0.790  1.00  0.00    -0.255 NA
HETATM  131  C   UNL     1      -0.784   6.914  -1.050  1.00  0.00     0.135 A 
HETATM  132  C   UNL     1      -0.758   6.195   0.125  1.00  0.00     0.111 A 
ENDBRANCH 119 128
ENDBRANCH 118 119
ENDBRANCH 112 118
ENDBRANCH 111 112
ENDBRANCH 110 111
BRANCH 110 133
HETATM  133  N   UNL     1       0.449   4.945   5.763  1.00  0.00    -0.345 N 
HETATM  134  C   UNL     1       0.211   3.889   4.960  1.00  0.00     0.111 A 
HETATM  135  C   UNL     1      -1.058   3.420   5.210  1.00  0.00     0.135 A 
HETATM  136  N   UNL     1      -1.605   4.143   6.199  1.00  0.00    -0.255 NA
HETATM  137  C   UNL     1      -0.658   5.047   6.527  1.00  0.00     0.209 A 
ENDBRANCH 110 133
ENDBRANCH 109 110
ENDBRANCH 103 109
ENDBRANCH 102 103
ENDBRANCH 101 102
ENDBRANCH   4 101
BRANCH  13 138
HETATM  138  O   UNL     1       0.895   0.529  12.109  1.00  0.00    -0.390 OA
HETATM  139  H   UNL     1       0.922  -0.463  12.116  1.00  0.00     0.210 HD
ENDBRANCH  13 138
BRANCH  17 140
HETATM  140  O   UNL     1       2.479  -1.279  13.883  1.00  0.00    -0.388 OA
HETATM  141  H   UNL     1       3.282  -0.970  13.391  1.00  0.00     0.210 HD
ENDBRANCH  17 140
BRANCH  15 142
HETATM  142  O   UNL     1      -0.117  -1.692  14.181  1.00  0.00    -0.348 OA
BRANCH 142 143
HETATM  143  C   UNL     1      -1.505  -1.974  14.355  1.00  0.00     0.187 C 
HETATM  144  C   UNL     1      -1.916  -3.345  13.674  1.00  0.00     0.177 C 
HETATM  145  O   UNL     1      -3.034  -3.990  14.305  1.00  0.00    -0.378 OA
HETATM  146  C   UNL     1      -3.930  -3.069  14.883  1.00  0.00     0.202 C 
HETATM  147  C   UNL     1      -3.286  -2.396  16.115  1.00  0.00     0.173 C 
HETATM  148  C   UNL     1      -1.776  -2.105  15.867  1.00  0.00     0.180 C 
BRANCH 144 149
HETATM  149  C   UNL     1      -2.195  -3.199  12.167  1.00  0.00     0.215 C 
BRANCH 149 150
HETATM  150  O   UNL     1      -2.833  -4.253  11.504  1.00  0.00    -0.303 OA
BRANCH 150 151
HETATM  151  C   UNL     1      -2.527  -5.232  10.593  1.00  0.00     0.323 C 
HETATM  152  C   UNL     1      -1.097  -5.279  10.121  1.00  0.00     0.147 C 
HETATM  153  O   UNL     1      -2.754  -6.321  11.096  1.00  0.00    -0.241 OA
BRANCH 151 154
HETATM  154  O   UNL     1      -3.267  -5.068   9.478  1.00  0.00    -0.132 OA
HETATM  155 NA   UNL     1      -2.433  -4.474   7.739  1.00  0.00     0.000 Na
ENDBRANCH 151 154
ENDBRANCH 150 151
ENDBRANCH 149 150
ENDBRANCH 144 149
BRANCH 147 156
HETATM  156  O   UNL     1      -3.470  -3.131  17.302  1.00  0.00    -0.391 OA
HETATM  157  H   UNL     1      -4.024  -2.587  17.921  1.00  0.00     0.210 HD
ENDBRANCH 147 156
BRANCH 148 158
HETATM  158  O   UNL     1      -0.941  -3.099  16.424  1.00  0.00    -0.390 OA
HETATM  159  H   UNL     1      -0.119  -2.678  16.781  1.00  0.00     0.210 HD
ENDBRANCH 148 158
ENDBRANCH 142 143
ENDBRANCH  15 142
TORSDOF 60
ENDMDL
MODEL 7
REMARK VINA RESULT:      -7.5      5.195     12.483
REMARK WARNING: 32 MAX_TORS EXCEEDED!!!
REMARK  60 active torsions:
REMARK  status: ('A' for Active; 'I' for Inactive)
REMARK    1  A    between atoms: C_1  and  O_30 
REMARK    2  A    between atoms: C_3  and  O_9 
REMARK    3  A    between atoms: C_4  and  O_11 
REMARK    4  A    between atoms: O_11  and  C_106 
REMARK    5  A    between atoms: O_14  and  C_18 
REMARK    6  A    between atoms: O_19  and  C_22 
REMARK    7  A    between atoms: O_19  and  C_42 
REMARK    8  A    between atoms: O_21  and  C_24 
REMARK    9  A    between atoms: O_26  and  C_29 
REMARK   10  A    between atoms: C_28  and  C_34 
REMARK   11  A    between atoms: O_30  and  C_33 
REMARK   12  A    between atoms: C_31  and  O_53 
REMARK   13  A    between atoms: O_32  and  C_35 
REMARK   14  A    between atoms: C_34  and  O_59 
REMARK   15  A    between atoms: O_37  and  C_41 
REMARK   16  A    between atoms: C_39  and  C_45 
REMARK   17  A    between atoms: O_40  and  C_45 
REMARK   18  A    between atoms: O_40  and  C_157 
REMARK   19  A    between atoms: O_43  and  C_46 
REMARK   20  A    between atoms: O_48  and  C_52 
REMARK   21  A    between atoms: C_50  and  C_57 
REMARK   22  A    between atoms: O_51  and  C_57 
REMARK   23  A    between atoms: O_51  and  C_135 
REMARK   24  A    between atoms: O_53  and  C_56 
REMARK   25  A    between atoms: O_55  and  C_58 
REMARK   26  A    between atoms: O_55  and  C_60 
REMARK   27  A    between atoms: O_59  and  C_141 
REMARK   28  A    between atoms: C_60  and  C_61 
REMARK   29  A    between atoms: C_61  and  C_62 
REMARK   30  A    between atoms: C_61  and  N_75 
REMARK   31  A    between atoms: C_62  and  C_63 
REMARK   32  A    between atoms: C_63  and  C_64 
REMARK   33  A    between atoms: C_63  and  N_89 
REMARK   34  A    between atoms: C_64  and  C_65 
REMARK   35  A    between atoms: C_65  and  C_66 
REMARK   36  A    between atoms: C_65  and  N_79 
REMARK   37  A    between atoms: C_66  and  C_67 
REMARK   38  A    between atoms: C_67  and  C_68 
REMARK   39  A    between atoms: C_67  and  N_94 
REMARK   40  A    between atoms: C_68  and  C_69 
REMARK   41  A    between atoms: C_69  and  N_84 
REMARK   42  A    between atoms: N_101  and  C_107 
REMARK   43  A    between atoms: C_106  and  C_107 
REMARK   44  A    between atoms: C_107  and  C_114 
REMARK   45  A    between atoms: N_110  and  C_116 
REMARK   46  A    between atoms: C_112  and  C_116 
REMARK   47  A    between atoms: C_112  and  C_118 
REMARK   48  A    between atoms: N_113  and  C_123 
REMARK   49  A    between atoms: C_114  and  C_118 
REMARK   50  A    between atoms: C_116  and  C_120 
REMARK   51  A    between atoms: N_117  and  C_118 
REMARK   52  A    between atoms: C_120  and  C_125 
REMARK   53  A    between atoms: C_123  and  C_124 
REMARK   54  A    between atoms: C_124  and  C_125 
REMARK   55  A    between atoms: C_125  and  N_128 
REMARK   56  A    between atoms: C_135  and  C_136 
REMARK   57  A    between atoms: C_136  and  O_138 
REMARK   58  A    between atoms: C_141  and  C_142 
REMARK   59  A    between atoms: C_142  and  O_143 
REMARK   60  A    between atoms: C_157  and  O_158 
ROOT
HETATM    1  C   UNL     1       3.017   6.518  14.307  1.00  0.00     0.187 C 
HETATM    2  C   UNL     1       1.554   6.272  14.856  1.00  0.00     0.180 C 
HETATM    3  C   UNL     1       3.563   5.359  13.410  1.00  0.00     0.183 C 
HETATM    4  C   UNL     1       2.450   4.689  12.541  1.00  0.00     0.208 C 
HETATM    5  C   UNL     1       1.404   4.276  13.618  1.00  0.00     0.292 C 
HETATM    6  C   UNL     1       1.490   5.796  16.344  1.00  0.00     0.203 C 
HETATM    7  O   UNL     1       0.203   5.666  16.953  1.00  0.00    -0.370 OA
HETATM    8  O   UNL     1       0.732   5.457  14.012  1.00  0.00    -0.348 OA
HETATM    9  O   UNL     1       0.483   3.262  13.186  1.00  0.00    -0.348 OA
HETATM   10  O   UNL     1      -1.334   0.472  14.560  1.00  0.00    -0.348 OA
HETATM   11  C   UNL     1      -0.779   1.769  14.765  1.00  0.00     0.180 C 
HETATM   12  O   UNL     1      -1.818   1.702  16.962  1.00  0.00    -0.304 OA
HETATM   13  C   UNL     1       0.927   0.813  13.115  1.00  0.00     0.183 C 
HETATM   14  C   UNL     1       0.542   2.041  13.970  1.00  0.00     0.187 C 
HETATM   15  C   UNL     1      -0.467  -0.649  14.696  1.00  0.00     0.292 C 
HETATM   16  C   UNL     1      -0.657   2.042  16.276  1.00  0.00     0.215 C 
HETATM   17  C   UNL     1       0.940  -0.399  14.080  1.00  0.00     0.204 C 
HETATM   18 NA   UNL     1      -3.238   6.952  14.310  1.00  0.00     0.050 Na
HETATM   19  C   UNL     1      -0.856   6.112  16.136  1.00  0.00     0.261 C 
HETATM   20  C   UNL     1      -1.875   6.890  16.906  1.00  0.00     0.310 C 
HETATM   21  O   UNL     1      -2.966   7.356  16.268  1.00  0.00    -0.185 OA
HETATM   22  O   UNL     1      -1.737   7.100  18.100  1.00  0.00    -0.261 OA
HETATM   23 NA   UNL     1      -4.517   4.389  15.468  1.00  0.00     0.051 Na
HETATM   24  C   UNL     1      -3.927   1.572  15.928  1.00  0.00     0.146 C 
HETATM   25  C   UNL     1      -3.040   2.303  16.896  1.00  0.00     0.314 C 
HETATM   26  O   UNL     1      -2.967   3.575  16.465  1.00  0.00    -0.172 OA
HETATM   27  O   UNL     1      -3.597   2.232  17.980  1.00  0.00    -0.242 OA
ENDROOT
BRANCH   1  28
HETATM   28  O   UNL     1       3.057   7.747  13.590  1.00  0.00    -0.348 OA
BRANCH  28  29
HETATM   29  C   UNL     1       2.221   8.772  14.154  1.00  0.00     0.292 C 
HETATM   30  O   UNL     1       1.338   9.252  13.146  1.00  0.00    -0.348 OA
HETATM   31  C   UNL     1       0.470  10.323  13.560  1.00  0.00     0.180 C 
HETATM   32  C   UNL     1       1.126  11.365  14.525  1.00  0.00     0.187 C 
HETATM   33  C   UNL     1       2.646  11.306  14.383  1.00  0.00     0.183 C 
HETATM   34  C   UNL     1       3.121   9.890  14.762  1.00  0.00     0.204 C 
BRANCH  31  35
HETATM   35  C   UNL     1      -0.881   9.807  14.129  1.00  0.00     0.203 C 
BRANCH  35  36
HETATM   36  O   UNL     1      -2.019  10.420  13.564  1.00  0.00    -0.370 OA
BRANCH  36  37
HETATM   37  C   UNL     1      -3.151  10.157  14.345  1.00  0.00     0.262 C 
BRANCH  37  38
HETATM   38  C   UNL     1      -3.872  11.443  14.586  1.00  0.00     0.321 C 
HETATM   39  O   UNL     1      -4.376  11.670  15.676  1.00  0.00    -0.260 OA
BRANCH  38  40
HETATM   40  O   UNL     1      -3.943  12.366  13.612  1.00  0.00    -0.147 OA
HETATM   41 NA   UNL     1      -2.387  12.629  12.364  1.00  0.00     0.000 Na
ENDBRANCH  38  40
ENDBRANCH  37  38
ENDBRANCH  36  37
ENDBRANCH  35  36
ENDBRANCH  31  35
BRANCH  32  42
HETATM   42  O   UNL     1       0.730  12.687  14.177  1.00  0.00    -0.348 OA
BRANCH  42  43
HETATM   43  C   UNL     1      -0.468  13.141  14.771  1.00  0.00     0.292 C 
HETATM   44  O   UNL     1      -1.124  13.999  13.834  1.00  0.00    -0.351 OA
HETATM   45  C   UNL     1      -1.497  15.273  14.332  1.00  0.00     0.151 C 
HETATM   46  C   UNL     1      -2.272  15.142  15.663  1.00  0.00     0.068 C 
HETATM   47  C   UNL     1      -1.487  14.325  16.726  1.00  0.00     0.154 C 
HETATM   48  C   UNL     1      -0.154  13.767  16.180  1.00  0.00     0.205 C 
BRANCH  45  49
HETATM   49  C   UNL     1      -2.390  15.970  13.283  1.00  0.00     0.200 C 
BRANCH  49  50
HETATM   50  O   UNL     1      -2.867  15.084  12.288  1.00  0.00    -0.379 OA
BRANCH  50  51
HETATM   51  C   UNL     1      -2.638  15.564  10.977  1.00  0.00     0.281 C 
BRANCH  51  52
HETATM   52  C   UNL     1      -2.250  14.422  10.081  1.00  0.00     0.313 C 
HETATM   53  O   UNL     1      -1.407  14.568   9.210  1.00  0.00    -0.260 OA
BRANCH  52  54
HETATM   54  O   UNL     1      -2.839  13.221  10.233  1.00  0.00    -0.148 OA
HETATM   55 NA   UNL     1      -1.748  11.530  10.240  1.00  0.00     0.000 Na
ENDBRANCH  52  54
ENDBRANCH  51  52
ENDBRANCH  50  51
ENDBRANCH  49  50
ENDBRANCH  45  49
BRANCH  47  56
HETATM   56  O   UNL     1      -1.291  15.056  17.911  1.00  0.00    -0.393 OA
HETATM   57  H   UNL     1      -2.177  15.403  18.203  1.00  0.00     0.210 HD
ENDBRANCH  47  56
BRANCH  48  58
HETATM   58  O   UNL     1       0.784  14.835  16.157  1.00  0.00    -0.376 OA
BRANCH  58  59
HETATM   59  C   UNL     1       1.945  14.630  16.947  1.00  0.00     0.194 C 
BRANCH  59  60
HETATM   60  C   UNL     1       3.207  14.194  16.137  1.00  0.00     0.116 C 
BRANCH  60  61
HETATM   61  C   UNL     1       4.350  13.712  17.103  1.00  0.00     0.053 C 
BRANCH  61  62
HETATM   62  C   UNL     1       4.967  12.269  16.959  1.00  0.00     0.094 C 
BRANCH  62  63
HETATM   63  C   UNL     1       6.223  12.287  15.996  1.00  0.00     0.051 C 
BRANCH  63  64
HETATM   64  C   UNL     1       6.907  13.647  15.628  1.00  0.00     0.094 C 
BRANCH  64  65
HETATM   65  C   UNL     1       8.391  13.738  16.136  1.00  0.00     0.051 C 
BRANCH  65  66
HETATM   66  C   UNL     1       8.632  15.003  17.006  1.00  0.00     0.094 C 
BRANCH  66  67
HETATM   67  C   UNL     1       7.362  15.845  17.366  1.00  0.00     0.051 C 
BRANCH  67  68
HETATM   68  C   UNL     1       7.409  17.405  17.322  1.00  0.00     0.089 C 
HETATM   69  C   UNL     1       7.854  17.940  18.695  1.00  0.00     0.033 C 
BRANCH  68  70
HETATM   70  N   UNL     1       8.267  17.983  16.301  1.00  0.00    -0.334 N 
HETATM   71  C   UNL     1       9.560  18.496  16.523  1.00  0.00     0.210 A 
HETATM   72  N   UNL     1      10.078  18.943  15.445  1.00  0.00    -0.254 NA
HETATM   73  C   UNL     1       9.122  18.732  14.426  1.00  0.00     0.150 A 
HETATM   74  C   UNL     1       8.032  18.153  14.924  1.00  0.00     0.082 A 
ENDBRANCH  68  70
ENDBRANCH  67  68
ENDBRANCH  66  67
BRANCH  66  75
HETATM   75  N   UNL     1       9.475  14.724  18.179  1.00  0.00    -0.345 N 
HETATM   76  C   UNL     1       9.088  14.447  19.443  1.00  0.00     0.209 A 
HETATM   77  N   UNL     1      10.140  14.228  20.258  1.00  0.00    -0.255 NA
HETATM   78  C   UNL     1      11.224  14.368  19.471  1.00  0.00     0.135 A 
HETATM   79  C   UNL     1      10.819  14.669  18.191  1.00  0.00     0.111 A 
ENDBRANCH  66  75
ENDBRANCH  65  66
ENDBRANCH  64  65
BRANCH  64  80
HETATM   80  N   UNL     1       6.922  13.860  14.166  1.00  0.00    -0.345 N 
HETATM   81  C   UNL     1       7.417  14.902  13.467  1.00  0.00     0.209 A 
HETATM   82  N   UNL     1       7.287  14.731  12.134  1.00  0.00    -0.255 NA
HETATM   83  C   UNL     1       6.698  13.528  11.993  1.00  0.00     0.135 A 
HETATM   84  C   UNL     1       6.481  12.986  13.236  1.00  0.00     0.111 A 
ENDBRANCH  64  80
ENDBRANCH  63  64
ENDBRANCH  62  63
BRANCH  62  85
HETATM   85  N   UNL     1       5.093  11.551  18.249  1.00  0.00    -0.345 N 
HETATM   86  C   UNL     1       5.618  12.059  19.385  1.00  0.00     0.209 A 
HETATM   87  N   UNL     1       5.684  11.157  20.381  1.00  0.00    -0.255 NA
HETATM   88  C   UNL     1       5.209  10.020  19.845  1.00  0.00     0.135 A 
HETATM   89  C   UNL     1       4.870  10.250  18.532  1.00  0.00     0.111 A 
ENDBRANCH  62  85
ENDBRANCH  61  62
ENDBRANCH  60  61
BRANCH  60  90
HETATM   90  N   UNL     1       3.627  15.194  15.125  1.00  0.00    -0.343 N 
HETATM   91  C   UNL     1       3.496  15.163  13.778  1.00  0.00     0.111 A 
HETATM   92  C   UNL     1       4.043  16.313  13.259  1.00  0.00     0.135 A 
HETATM   93  N   UNL     1       4.536  17.060  14.262  1.00  0.00    -0.255 NA
HETATM   94  C   UNL     1       4.277  16.353  15.379  1.00  0.00     0.209 A 
ENDBRANCH  60  90
ENDBRANCH  59  60
ENDBRANCH  58  59
ENDBRANCH  48  58
ENDBRANCH  42  43
ENDBRANCH  32  42
BRANCH  33  95
HETATM   95  O   UNL     1       3.047  11.694  13.088  1.00  0.00    -0.390 OA
HETATM   96  H   UNL     1       2.716  12.608  12.896  1.00  0.00     0.210 HD
ENDBRANCH  33  95
BRANCH  34  97
HETATM   97  O   UNL     1       4.492   9.726  14.497  1.00  0.00    -0.388 OA
HETATM   98  H   UNL     1       4.760  10.419  13.842  1.00  0.00     0.210 HD
ENDBRANCH  34  97
ENDBRANCH  28  29
ENDBRANCH   1  28
BRANCH   3  99
HETATM   99  O   UNL     1       4.638   5.803  12.624  1.00  0.00    -0.390 OA
HETATM  100  H   UNL     1       5.366   5.135  12.727  1.00  0.00     0.210 HD
ENDBRANCH   3  99
BRANCH   4 101
HETATM  101  O   UNL     1       2.008   5.616  11.529  1.00  0.00    -0.376 OA
BRANCH 101 102
HETATM  102  C   UNL     1       2.269   5.212  10.186  1.00  0.00     0.194 C 
BRANCH 102 103
HETATM  103  C   UNL     1       1.202   5.763   9.149  1.00  0.00     0.116 C 
BRANCH 103 104
HETATM  104  N   UNL     1       0.742   7.132   9.497  1.00  0.00    -0.343 N 
HETATM  105  C   UNL     1       1.404   8.305   9.379  1.00  0.00     0.111 A 
HETATM  106  C   UNL     1       0.589   9.316   9.837  1.00  0.00     0.135 A 
HETATM  107  N   UNL     1      -0.570   8.787  10.264  1.00  0.00    -0.255 NA
HETATM  108  C   UNL     1      -0.445   7.461  10.054  1.00  0.00     0.209 A 
ENDBRANCH 103 104
BRANCH 103 109
HETATM  109  C   UNL     1       1.734   5.593   7.674  1.00  0.00     0.053 C 
BRANCH 109 110
HETATM  110  C   UNL     1       0.940   5.991   6.357  1.00  0.00     0.094 C 
BRANCH 110 111
HETATM  111  C   UNL     1       1.853   6.362   5.111  1.00  0.00     0.051 C 
BRANCH 111 112
HETATM  112  C   UNL     1       1.406   5.913   3.659  1.00  0.00     0.094 C 
BRANCH 112 113
HETATM  113  N   UNL     1       2.489   6.011   2.665  1.00  0.00    -0.345 N 
HETATM  114  C   UNL     1       2.811   7.074   1.903  1.00  0.00     0.111 A 
HETATM  115  C   UNL     1       3.834   6.700   1.059  1.00  0.00     0.135 A 
HETATM  116  N   UNL     1       4.138   5.406   1.274  1.00  0.00    -0.255 NA
HETATM  117  C   UNL     1       3.298   5.012   2.250  1.00  0.00     0.209 A 
ENDBRANCH 112 113
BRANCH 112 118
HETATM  118  C   UNL     1       0.171   6.696   3.068  1.00  0.00     0.051 C 
BRANCH 118 119
HETATM  119  C   UNL     1      -0.525   5.913   1.913  1.00  0.00     0.094 C 
BRANCH 119 120
HETATM  120  C   UNL     1      -1.823   5.112   2.286  1.00  0.00     0.051 C 
BRANCH 120 121
HETATM  121  C   UNL     1      -3.145   5.859   2.676  1.00  0.00     0.089 C 
HETATM  122  C   UNL     1      -2.804   7.126   3.479  1.00  0.00     0.033 C 
BRANCH 121 123
HETATM  123  N   UNL     1      -4.009   6.235   1.569  1.00  0.00    -0.334 N 
HETATM  124  C   UNL     1      -4.849   5.432   0.775  1.00  0.00     0.082 A 
HETATM  125  C   UNL     1      -5.417   6.247  -0.112  1.00  0.00     0.150 A 
HETATM  126  N   UNL     1      -4.965   7.573   0.076  1.00  0.00    -0.254 NA
HETATM  127  C   UNL     1      -4.147   7.540   1.055  1.00  0.00     0.210 A 
ENDBRANCH 121 123
ENDBRANCH 120 121
ENDBRANCH 119 120
BRANCH 119 128
HETATM  128  N   UNL     1      -0.750   6.791   0.747  1.00  0.00    -0.345 N 
HETATM  129  C   UNL     1      -0.558   8.127   0.666  1.00  0.00     0.209 A 
HETATM  130  N   UNL     1      -0.839   8.610  -0.560  1.00  0.00    -0.255 NA
HETATM  131  C   UNL     1      -1.216   7.533  -1.275  1.00  0.00     0.135 A 
HETATM  132  C   UNL     1      -1.159   6.411  -0.477  1.00  0.00     0.111 A 
ENDBRANCH 119 128
ENDBRANCH 118 119
ENDBRANCH 112 118
ENDBRANCH 111 112
ENDBRANCH 110 111
BRANCH 110 133
HETATM  133  N   UNL     1      -0.229   5.109   6.097  1.00  0.00    -0.345 N 
HETATM  134  C   UNL     1      -0.273   3.860   5.592  1.00  0.00     0.111 A 
HETATM  135  C   UNL     1      -1.575   3.416   5.627  1.00  0.00     0.135 A 
HETATM  136  N   UNL     1      -2.345   4.357   6.194  1.00  0.00    -0.255 NA
HETATM  137  C   UNL     1      -1.495   5.363   6.487  1.00  0.00     0.209 A 
ENDBRANCH 110 133
ENDBRANCH 109 110
ENDBRANCH 103 109
ENDBRANCH 102 103
ENDBRANCH 101 102
ENDBRANCH   4 101
BRANCH  13 138
HETATM  138  O   UNL     1       0.008   0.599  12.075  1.00  0.00    -0.390 OA
HETATM  139  H   UNL     1      -0.166  -0.378  12.050  1.00  0.00     0.210 HD
ENDBRANCH  13 138
BRANCH  17 140
HETATM  140  O   UNL     1       1.489  -1.563  13.511  1.00  0.00    -0.388 OA
HETATM  141  H   UNL     1       2.377  -1.328  13.138  1.00  0.00     0.210 HD
ENDBRANCH  17 140
BRANCH  15 142
HETATM  142  O   UNL     1      -1.108  -1.707  13.996  1.00  0.00    -0.348 OA
BRANCH 142 143
HETATM  143  C   UNL     1      -1.537  -2.794  14.815  1.00  0.00     0.187 C 
HETATM  144  C   UNL     1      -3.114  -2.947  14.808  1.00  0.00     0.177 C 
HETATM  145  O   UNL     1      -3.564  -4.292  15.038  1.00  0.00    -0.378 OA
HETATM  146  C   UNL     1      -2.680  -5.022  15.857  1.00  0.00     0.202 C 
HETATM  147  C   UNL     1      -1.364  -5.311  15.103  1.00  0.00     0.173 C 
HETATM  148  C   UNL     1      -0.940  -4.091  14.232  1.00  0.00     0.180 C 
BRANCH 144 149
HETATM  149  C   UNL     1      -3.807  -2.000  15.805  1.00  0.00     0.215 C 
BRANCH 149 150
HETATM  150  O   UNL     1      -4.875  -2.495  16.561  1.00  0.00    -0.303 OA
BRANCH 150 151
HETATM  151  C   UNL     1      -5.265  -2.558  17.875  1.00  0.00     0.323 C 
HETATM  152  C   UNL     1      -6.429  -3.463  18.182  1.00  0.00     0.147 C 
HETATM  153  O   UNL     1      -4.330  -2.972  18.542  1.00  0.00    -0.241 OA
BRANCH 151 154
HETATM  154  O   UNL     1      -5.639  -1.335  18.301  1.00  0.00    -0.132 OA
HETATM  155 NA   UNL     1      -6.086  -0.987  20.238  1.00  0.00     0.000 Na
ENDBRANCH 151 154
ENDBRANCH 150 151
ENDBRANCH 149 150
ENDBRANCH 144 149
BRANCH 147 156
HETATM  156  O   UNL     1      -1.421  -6.486  14.330  1.00  0.00    -0.391 OA
HETATM  157  H   UNL     1      -1.665  -6.236  13.401  1.00  0.00     0.210 HD
ENDBRANCH 147 156
BRANCH 148 158
HETATM  158  O   UNL     1      -1.326  -4.236  12.882  1.00  0.00    -0.390 OA
HETATM  159  H   UNL     1      -1.257  -5.189  12.619  1.00  0.00     0.210 HD
ENDBRANCH 148 158
ENDBRANCH 142 143
ENDBRANCH  15 142
TORSDOF 60
ENDMDL
MODEL 8
REMARK VINA RESULT:      -7.5      2.662      4.498
REMARK WARNING: 32 MAX_TORS EXCEEDED!!!
REMARK  60 active torsions:
REMARK  status: ('A' for Active; 'I' for Inactive)
REMARK    1  A    between atoms: C_1  and  O_30 
REMARK    2  A    between atoms: C_3  and  O_9 
REMARK    3  A    between atoms: C_4  and  O_11 
REMARK    4  A    between atoms: O_11  and  C_106 
REMARK    5  A    between atoms: O_14  and  C_18 
REMARK    6  A    between atoms: O_19  and  C_22 
REMARK    7  A    between atoms: O_19  and  C_42 
REMARK    8  A    between atoms: O_21  and  C_24 
REMARK    9  A    between atoms: O_26  and  C_29 
REMARK   10  A    between atoms: C_28  and  C_34 
REMARK   11  A    between atoms: O_30  and  C_33 
REMARK   12  A    between atoms: C_31  and  O_53 
REMARK   13  A    between atoms: O_32  and  C_35 
REMARK   14  A    between atoms: C_34  and  O_59 
REMARK   15  A    between atoms: O_37  and  C_41 
REMARK   16  A    between atoms: C_39  and  C_45 
REMARK   17  A    between atoms: O_40  and  C_45 
REMARK   18  A    between atoms: O_40  and  C_157 
REMARK   19  A    between atoms: O_43  and  C_46 
REMARK   20  A    between atoms: O_48  and  C_52 
REMARK   21  A    between atoms: C_50  and  C_57 
REMARK   22  A    between atoms: O_51  and  C_57 
REMARK   23  A    between atoms: O_51  and  C_135 
REMARK   24  A    between atoms: O_53  and  C_56 
REMARK   25  A    between atoms: O_55  and  C_58 
REMARK   26  A    between atoms: O_55  and  C_60 
REMARK   27  A    between atoms: O_59  and  C_141 
REMARK   28  A    between atoms: C_60  and  C_61 
REMARK   29  A    between atoms: C_61  and  C_62 
REMARK   30  A    between atoms: C_61  and  N_75 
REMARK   31  A    between atoms: C_62  and  C_63 
REMARK   32  A    between atoms: C_63  and  C_64 
REMARK   33  A    between atoms: C_63  and  N_89 
REMARK   34  A    between atoms: C_64  and  C_65 
REMARK   35  A    between atoms: C_65  and  C_66 
REMARK   36  A    between atoms: C_65  and  N_79 
REMARK   37  A    between atoms: C_66  and  C_67 
REMARK   38  A    between atoms: C_67  and  C_68 
REMARK   39  A    between atoms: C_67  and  N_94 
REMARK   40  A    between atoms: C_68  and  C_69 
REMARK   41  A    between atoms: C_69  and  N_84 
REMARK   42  A    between atoms: N_101  and  C_107 
REMARK   43  A    between atoms: C_106  and  C_107 
REMARK   44  A    between atoms: C_107  and  C_114 
REMARK   45  A    between atoms: N_110  and  C_116 
REMARK   46  A    between atoms: C_112  and  C_116 
REMARK   47  A    between atoms: C_112  and  C_118 
REMARK   48  A    between atoms: N_113  and  C_123 
REMARK   49  A    between atoms: C_114  and  C_118 
REMARK   50  A    between atoms: C_116  and  C_120 
REMARK   51  A    between atoms: N_117  and  C_118 
REMARK   52  A    between atoms: C_120  and  C_125 
REMARK   53  A    between atoms: C_123  and  C_124 
REMARK   54  A    between atoms: C_124  and  C_125 
REMARK   55  A    between atoms: C_125  and  N_128 
REMARK   56  A    between atoms: C_135  and  C_136 
REMARK   57  A    between atoms: C_136  and  O_138 
REMARK   58  A    between atoms: C_141  and  C_142 
REMARK   59  A    between atoms: C_142  and  O_143 
REMARK   60  A    between atoms: C_157  and  O_158 
ROOT
HETATM    1  C   UNL     1       2.171   0.944  14.668  1.00  0.00     0.187 C 
HETATM    2  C   UNL     1       2.300   1.021  16.243  1.00  0.00     0.180 C 
HETATM    3  C   UNL     1       1.901  -0.497  14.122  1.00  0.00     0.183 C 
HETATM    4  C   UNL     1       0.998  -1.346  15.073  1.00  0.00     0.208 C 
HETATM    5  C   UNL     1       1.780  -1.268  16.417  1.00  0.00     0.292 C 
HETATM    6  C   UNL     1       3.769   1.112  16.772  1.00  0.00     0.203 C 
HETATM    7  O   UNL     1       3.967   1.305  18.174  1.00  0.00    -0.370 OA
HETATM    8  O   UNL     1       1.553   0.023  16.950  1.00  0.00    -0.348 OA
HETATM    9  O   UNL     1       1.436  -2.297  17.359  1.00  0.00    -0.348 OA
HETATM   10  O   UNL     1       3.011  -4.268  19.929  1.00  0.00    -0.348 OA
HETATM   11  C   UNL     1       2.949  -3.030  19.227  1.00  0.00     0.180 C 
HETATM   12  O   UNL     1       4.629  -2.231  20.792  1.00  0.00    -0.304 OA
HETATM   13  C   UNL     1       2.289  -4.636  17.348  1.00  0.00     0.183 C 
HETATM   14  C   UNL     1       2.549  -3.159  17.719  1.00  0.00     0.187 C 
HETATM   15  C   UNL     1       3.753  -5.330  19.337  1.00  0.00     0.292 C 
HETATM   16  C   UNL     1       4.256  -2.246  19.453  1.00  0.00     0.215 C 
HETATM   17  C   UNL     1       3.547  -5.423  17.798  1.00  0.00     0.204 C 
HETATM   18 NA   UNL     1       0.142   1.821  20.536  1.00  0.00     0.050 Na
HETATM   19  C   UNL     1       2.772   1.509  18.891  1.00  0.00     0.261 C 
HETATM   20  C   UNL     1       2.906   2.585  19.921  1.00  0.00     0.310 C 
HETATM   21  O   UNL     1       1.854   2.874  20.712  1.00  0.00    -0.185 OA
HETATM   22  O   UNL     1       3.953   3.196  20.062  1.00  0.00    -0.261 OA
HETATM   23 NA   UNL     1       1.613  -0.057  22.500  1.00  0.00     0.051 Na
HETATM   24  C   UNL     1       3.103  -2.562  22.553  1.00  0.00     0.146 C 
HETATM   25  C   UNL     1       4.008  -1.603  21.831  1.00  0.00     0.314 C 
HETATM   26  O   UNL     1       3.237  -0.577  21.427  1.00  0.00    -0.172 OA
HETATM   27  O   UNL     1       4.835  -1.240  22.652  1.00  0.00    -0.242 OA
ENDROOT
BRANCH   1  28
HETATM   28  O   UNL     1       1.147   1.830  14.230  1.00  0.00    -0.348 OA
BRANCH  28  29
HETATM   29  C   UNL     1       1.628   2.910  13.413  1.00  0.00     0.292 C 
HETATM   30  O   UNL     1       1.533   4.124  14.150  1.00  0.00    -0.348 OA
HETATM   31  C   UNL     1       1.938   5.303  13.432  1.00  0.00     0.180 C 
HETATM   32  C   UNL     1       1.534   5.324  11.921  1.00  0.00     0.187 C 
HETATM   33  C   UNL     1       0.371   4.361  11.690  1.00  0.00     0.183 C 
HETATM   34  C   UNL     1       0.823   2.941  12.078  1.00  0.00     0.204 C 
BRANCH  31  35
HETATM   35  C   UNL     1       3.449   5.619  13.613  1.00  0.00     0.203 C 
BRANCH  35  36
HETATM   36  O   UNL     1       3.778   6.179  14.865  1.00  0.00    -0.370 OA
BRANCH  36  37
HETATM   37  C   UNL     1       3.885   7.571  14.763  1.00  0.00     0.262 C 
BRANCH  37  38
HETATM   38  C   UNL     1       3.020   8.193  15.809  1.00  0.00     0.321 C 
HETATM   39  O   UNL     1       3.134   9.380  16.076  1.00  0.00    -0.260 OA
BRANCH  38  40
HETATM   40  O   UNL     1       2.092   7.453  16.441  1.00  0.00    -0.147 OA
HETATM   41 NA   UNL     1       0.155   7.988  16.357  1.00  0.00     0.000 Na
ENDBRANCH  38  40
ENDBRANCH  37  38
ENDBRANCH  36  37
ENDBRANCH  35  36
ENDBRANCH  31  35
BRANCH  32  42
HETATM   42  O   UNL     1       1.081   6.618  11.543  1.00  0.00    -0.348 OA
BRANCH  42  43
HETATM   43  C   UNL     1       0.965   7.555  12.593  1.00  0.00     0.292 C 
HETATM   44  O   UNL     1      -0.339   7.417  13.163  1.00  0.00    -0.351 OA
HETATM   45  C   UNL     1      -1.088   8.615  13.269  1.00  0.00     0.151 C 
HETATM   46  C   UNL     1      -0.257   9.730  13.946  1.00  0.00     0.068 C 
HETATM   47  C   UNL     1       1.101   9.971  13.231  1.00  0.00     0.154 C 
HETATM   48  C   UNL     1       1.339   8.989  12.063  1.00  0.00     0.205 C 
BRANCH  45  49
HETATM   49  C   UNL     1      -2.352   8.334  14.110  1.00  0.00     0.200 C 
BRANCH  49  50
HETATM   50  O   UNL     1      -2.076   8.192  15.491  1.00  0.00    -0.379 OA
BRANCH  50  51
HETATM   51  C   UNL     1      -2.691   7.048  16.053  1.00  0.00     0.281 C 
BRANCH  51  52
HETATM   52  C   UNL     1      -1.842   5.836  15.787  1.00  0.00     0.313 C 
HETATM   53  O   UNL     1      -0.813   5.642  16.416  1.00  0.00    -0.260 OA
BRANCH  52  54
HETATM   54  O   UNL     1      -2.214   4.952  14.842  1.00  0.00    -0.148 OA
HETATM   55 NA   UNL     1      -3.216   5.553  13.203  1.00  0.00     0.000 Na
ENDBRANCH  52  54
ENDBRANCH  51  52
ENDBRANCH  50  51
ENDBRANCH  49  50
ENDBRANCH  45  49
BRANCH  47  56
HETATM   56  O   UNL     1       1.246  11.308  12.818  1.00  0.00    -0.393 OA
HETATM   57  H   UNL     1       1.583  11.830  13.594  1.00  0.00     0.210 HD
ENDBRANCH  47  56
BRANCH  48  58
HETATM   58  O   UNL     1       0.562   9.434  10.960  1.00  0.00    -0.376 OA
BRANCH  58  59
HETATM   59  C   UNL     1       1.225   9.400   9.705  1.00  0.00     0.194 C 
BRANCH  59  60
HETATM   60  C   UNL     1       0.281   9.563   8.472  1.00  0.00     0.116 C 
BRANCH  60  61
HETATM   61  C   UNL     1       1.031   9.189   7.143  1.00  0.00     0.053 C 
BRANCH  61  62
HETATM   62  C   UNL     1       0.698   7.849   6.383  1.00  0.00     0.094 C 
BRANCH  62  63
HETATM   63  C   UNL     1       0.497   8.113   4.836  1.00  0.00     0.051 C 
BRANCH  63  64
HETATM   64  C   UNL     1      -0.114   6.995   3.925  1.00  0.00     0.094 C 
BRANCH  64  65
HETATM   65  C   UNL     1      -1.624   7.252   3.577  1.00  0.00     0.051 C 
BRANCH  65  66
HETATM   66  C   UNL     1      -2.504   5.998   3.837  1.00  0.00     0.094 C 
BRANCH  66  67
HETATM   67  C   UNL     1      -2.707   5.035   2.619  1.00  0.00     0.051 C 
BRANCH  67  68
HETATM   68  C   UNL     1      -3.787   5.347   1.536  1.00  0.00     0.089 C 
HETATM   69  C   UNL     1      -5.040   5.924   2.217  1.00  0.00     0.033 C 
BRANCH  68  70
HETATM   70  N   UNL     1      -3.377   6.256   0.478  1.00  0.00    -0.334 N 
HETATM   71  C   UNL     1      -4.245   7.076  -0.269  1.00  0.00     0.210 A 
HETATM   72  N   UNL     1      -3.608   7.768  -1.133  1.00  0.00    -0.254 NA
HETATM   73  C   UNL     1      -2.244   7.430  -0.987  1.00  0.00     0.150 A 
HETATM   74  C   UNL     1      -2.090   6.528  -0.020  1.00  0.00     0.082 A 
ENDBRANCH  68  70
ENDBRANCH  67  68
ENDBRANCH  66  67
BRANCH  66  75
HETATM   75  N   UNL     1      -2.113   5.284   5.062  1.00  0.00    -0.345 N 
HETATM   76  C   UNL     1      -1.508   4.081   5.175  1.00  0.00     0.209 A 
HETATM   77  N   UNL     1      -1.287   3.744   6.462  1.00  0.00    -0.255 NA
HETATM   78  C   UNL     1      -1.767   4.779   7.179  1.00  0.00     0.135 A 
HETATM   79  C   UNL     1      -2.272   5.729   6.321  1.00  0.00     0.111 A 
ENDBRANCH  66  75
ENDBRANCH  65  66
ENDBRANCH  64  65
BRANCH  64  80
HETATM   80  N   UNL     1       0.625   6.881   2.650  1.00  0.00    -0.345 N 
HETATM   81  C   UNL     1       1.152   5.782   2.072  1.00  0.00     0.209 A 
HETATM   82  N   UNL     1       1.725   6.056   0.881  1.00  0.00    -0.255 NA
HETATM   83  C   UNL     1       1.540   7.378   0.702  1.00  0.00     0.135 A 
HETATM   84  C   UNL     1       0.858   7.887   1.780  1.00  0.00     0.111 A 
ENDBRANCH  64  80
ENDBRANCH  63  64
ENDBRANCH  62  63
BRANCH  62  85
HETATM   85  N   UNL     1       1.562   6.714   6.786  1.00  0.00    -0.345 N 
HETATM   86  C   UNL     1       1.578   6.131   8.004  1.00  0.00     0.209 A 
HETATM   87  N   UNL     1       2.523   5.178   8.116  1.00  0.00    -0.255 NA
HETATM   88  C   UNL     1       3.152   5.179   6.929  1.00  0.00     0.135 A 
HETATM   89  C   UNL     1       2.585   6.135   6.120  1.00  0.00     0.111 A 
ENDBRANCH  62  85
ENDBRANCH  61  62
ENDBRANCH  60  61
BRANCH  60  90
HETATM   90  N   UNL     1      -0.424  10.868   8.444  1.00  0.00    -0.343 N 
HETATM   91  C   UNL     1      -1.385  11.310   7.600  1.00  0.00     0.111 A 
HETATM   92  C   UNL     1      -1.729  12.592   7.961  1.00  0.00     0.135 A 
HETATM   93  N   UNL     1      -0.981  12.971   9.011  1.00  0.00    -0.255 NA
HETATM   94  C   UNL     1      -0.194  11.911   9.276  1.00  0.00     0.209 A 
ENDBRANCH  60  90
ENDBRANCH  59  60
ENDBRANCH  58  59
ENDBRANCH  48  58
ENDBRANCH  42  43
ENDBRANCH  32  42
BRANCH  33  95
HETATM   95  O   UNL     1      -0.780   4.784  12.389  1.00  0.00    -0.390 OA
HETATM   96  H   UNL     1      -1.576   4.314  12.033  1.00  0.00     0.210 HD
ENDBRANCH  33  95
BRANCH  34  97
HETATM   97  O   UNL     1      -0.253   2.037  12.041  1.00  0.00    -0.388 OA
HETATM   98  H   UNL     1      -0.419   1.800  11.093  1.00  0.00     0.210 HD
ENDBRANCH  34  97
ENDBRANCH  28  29
ENDBRANCH   1  28
BRANCH   3  99
HETATM   99  O   UNL     1       1.379  -0.444  12.820  1.00  0.00    -0.390 OA
HETATM  100  H   UNL     1       1.610  -1.305  12.381  1.00  0.00     0.210 HD
ENDBRANCH   3  99
BRANCH   4 101
HETATM  101  O   UNL     1      -0.341  -0.810  15.069  1.00  0.00    -0.376 OA
BRANCH 101 102
HETATM  102  C   UNL     1      -1.219  -1.387  14.103  1.00  0.00     0.194 C 
BRANCH 102 103
HETATM  103  C   UNL     1      -1.444  -2.943  14.315  1.00  0.00     0.116 C 
BRANCH 103 104
HETATM  104  N   UNL     1      -2.369  -3.225  15.441  1.00  0.00    -0.343 N 
HETATM  105  C   UNL     1      -2.088  -3.720  16.667  1.00  0.00     0.111 A 
HETATM  106  C   UNL     1      -3.262  -3.825  17.378  1.00  0.00     0.135 A 
HETATM  107  N   UNL     1      -4.283  -3.422  16.602  1.00  0.00    -0.255 NA
HETATM  108  C   UNL     1      -3.713  -3.073  15.432  1.00  0.00     0.209 A 
ENDBRANCH 103 104
BRANCH 103 109
HETATM  109  C   UNL     1      -1.829  -3.630  12.947  1.00  0.00     0.053 C 
BRANCH 109 110
HETATM  110  C   UNL     1      -2.094  -5.182  12.740  1.00  0.00     0.094 C 
BRANCH 110 111
HETATM  111  C   UNL     1      -2.147  -5.655  11.224  1.00  0.00     0.051 C 
BRANCH 111 112
HETATM  112  C   UNL     1      -1.220  -6.850  10.751  1.00  0.00     0.094 C 
BRANCH 112 113
HETATM  113  N   UNL     1      -0.365  -6.498   9.603  1.00  0.00    -0.345 N 
HETATM  114  C   UNL     1       0.735  -7.143   9.170  1.00  0.00     0.111 A 
HETATM  115  C   UNL     1       1.265  -6.424   8.120  1.00  0.00     0.135 A 
HETATM  116  N   UNL     1       0.515  -5.326   7.909  1.00  0.00    -0.255 NA
HETATM  117  C   UNL     1      -0.464  -5.394   8.831  1.00  0.00     0.209 A 
ENDBRANCH 112 113
BRANCH 112 118
HETATM  118  C   UNL     1      -1.983  -8.175  10.363  1.00  0.00     0.051 C 
BRANCH 118 119
HETATM  119  C   UNL     1      -1.745  -9.317  11.398  1.00  0.00     0.094 C 
BRANCH 119 120
HETATM  120  C   UNL     1      -0.364  -9.316  12.144  1.00  0.00     0.051 C 
BRANCH 120 121
HETATM  121  C   UNL     1       0.612 -10.538  12.032  1.00  0.00     0.089 C 
HETATM  122  C   UNL     1       1.981 -10.160  12.624  1.00  0.00     0.033 C 
BRANCH 121 123
HETATM  123  N   UNL     1       0.161 -11.767  12.664  1.00  0.00    -0.334 N 
HETATM  124  C   UNL     1      -0.431 -12.905  12.086  1.00  0.00     0.082 A 
HETATM  125  C   UNL     1      -0.672 -13.750  13.088  1.00  0.00     0.150 A 
HETATM  126  N   UNL     1      -0.255 -13.191  14.317  1.00  0.00    -0.254 NA
HETATM  127  C   UNL     1       0.222 -12.038  14.046  1.00  0.00     0.210 A 
ENDBRANCH 121 123
ENDBRANCH 120 121
ENDBRANCH 119 120
BRANCH 119 128
HETATM  128  N   UNL     1      -2.871  -9.403  12.349  1.00  0.00    -0.345 N 
HETATM  129  C   UNL     1      -4.058  -8.757  12.291  1.00  0.00     0.209 A 
HETATM  130  N   UNL     1      -4.870  -9.087  13.314  1.00  0.00    -0.255 NA
HETATM  131  C   UNL     1      -4.166  -9.978  14.038  1.00  0.00     0.135 A 
HETATM  132  C   UNL     1      -2.937 -10.178  13.447  1.00  0.00     0.111 A 
ENDBRANCH 119 128
ENDBRANCH 118 119
ENDBRANCH 112 118
ENDBRANCH 111 112
ENDBRANCH 110 111
BRANCH 110 133
HETATM  133  N   UNL     1      -1.321  -6.032  13.684  1.00  0.00    -0.345 N 
HETATM  134  C   UNL     1       0.004  -6.069  13.927  1.00  0.00     0.111 A 
HETATM  135  C   UNL     1       0.239  -6.953  14.956  1.00  0.00     0.135 A 
HETATM  136  N   UNL     1      -0.932  -7.437  15.395  1.00  0.00    -0.255 NA
HETATM  137  C   UNL     1      -1.861  -6.844  14.617  1.00  0.00     0.209 A 
ENDBRANCH 110 133
ENDBRANCH 109 110
ENDBRANCH 103 109
ENDBRANCH 102 103
ENDBRANCH 101 102
ENDBRANCH   4 101
BRANCH  13 138
HETATM  138  O   UNL     1       1.145  -5.138  17.991  1.00  0.00    -0.390 OA
HETATM  139  H   UNL     1       0.383  -4.980  17.374  1.00  0.00     0.210 HD
ENDBRANCH  13 138
BRANCH  17 140
HETATM  140  O   UNL     1       3.573  -6.750  17.333  1.00  0.00    -0.388 OA
HETATM  141  H   UNL     1       4.461  -7.131  17.553  1.00  0.00     0.210 HD
ENDBRANCH  17 140
BRANCH  15 142
HETATM  142  O   UNL     1       3.269  -6.516  19.951  1.00  0.00    -0.348 OA
BRANCH 142 143
HETATM  143  C   UNL     1       4.234  -7.231  20.720  1.00  0.00     0.187 C 
HETATM  144  C   UNL     1       5.663  -6.547  20.651  1.00  0.00     0.177 C 
HETATM  145  O   UNL     1       6.470  -6.780  21.817  1.00  0.00    -0.378 OA
HETATM  146  C   UNL     1       6.192  -8.020  22.424  1.00  0.00     0.202 C 
HETATM  147  C   UNL     1       4.792  -7.995  23.076  1.00  0.00     0.173 C 
HETATM  148  C   UNL     1       3.778  -7.210  22.192  1.00  0.00     0.180 C 
BRANCH 144 149
HETATM  149  C   UNL     1       6.454  -6.948  19.393  1.00  0.00     0.215 C 
BRANCH 149 150
HETATM  150  O   UNL     1       5.866  -7.846  18.496  1.00  0.00    -0.303 OA
BRANCH 150 151
HETATM  151  C   UNL     1       6.033  -9.142  18.078  1.00  0.00     0.323 C 
HETATM  152  C   UNL     1       7.025  -9.361  16.966  1.00  0.00     0.147 C 
HETATM  153  O   UNL     1       6.428  -9.811  19.020  1.00  0.00    -0.241 OA
BRANCH 151 154
HETATM  154  O   UNL     1       4.864  -9.629  17.617  1.00  0.00    -0.132 OA
HETATM  155 NA   UNL     1       3.095  -8.872  18.227  1.00  0.00     0.000 Na
ENDBRANCH 151 154
ENDBRANCH 150 151
ENDBRANCH 149 150
ENDBRANCH 144 149
BRANCH 147 156
HETATM  156  O   UNL     1       4.808  -7.494  24.392  1.00  0.00    -0.391 OA
HETATM  157  H   UNL     1       5.707  -7.110  24.568  1.00  0.00     0.210 HD
ENDBRANCH 147 156
BRANCH 148 158
HETATM  158  O   UNL     1       3.609  -5.877  22.627  1.00  0.00    -0.390 OA
HETATM  159  H   UNL     1       4.484  -5.415  22.625  1.00  0.00     0.210 HD
ENDBRANCH 148 158
ENDBRANCH 142 143
ENDBRANCH  15 142
TORSDOF 60
ENDMDL
MODEL 9
REMARK VINA RESULT:      -7.4      3.382     15.539
REMARK WARNING: 32 MAX_TORS EXCEEDED!!!
REMARK  60 active torsions:
REMARK  status: ('A' for Active; 'I' for Inactive)
REMARK    1  A    between atoms: C_1  and  O_30 
REMARK    2  A    between atoms: C_3  and  O_9 
REMARK    3  A    between atoms: C_4  and  O_11 
REMARK    4  A    between atoms: O_11  and  C_106 
REMARK    5  A    between atoms: O_14  and  C_18 
REMARK    6  A    between atoms: O_19  and  C_22 
REMARK    7  A    between atoms: O_19  and  C_42 
REMARK    8  A    between atoms: O_21  and  C_24 
REMARK    9  A    between atoms: O_26  and  C_29 
REMARK   10  A    between atoms: C_28  and  C_34 
REMARK   11  A    between atoms: O_30  and  C_33 
REMARK   12  A    between atoms: C_31  and  O_53 
REMARK   13  A    between atoms: O_32  and  C_35 
REMARK   14  A    between atoms: C_34  and  O_59 
REMARK   15  A    between atoms: O_37  and  C_41 
REMARK   16  A    between atoms: C_39  and  C_45 
REMARK   17  A    between atoms: O_40  and  C_45 
REMARK   18  A    between atoms: O_40  and  C_157 
REMARK   19  A    between atoms: O_43  and  C_46 
REMARK   20  A    between atoms: O_48  and  C_52 
REMARK   21  A    between atoms: C_50  and  C_57 
REMARK   22  A    between atoms: O_51  and  C_57 
REMARK   23  A    between atoms: O_51  and  C_135 
REMARK   24  A    between atoms: O_53  and  C_56 
REMARK   25  A    between atoms: O_55  and  C_58 
REMARK   26  A    between atoms: O_55  and  C_60 
REMARK   27  A    between atoms: O_59  and  C_141 
REMARK   28  A    between atoms: C_60  and  C_61 
REMARK   29  A    between atoms: C_61  and  C_62 
REMARK   30  A    between atoms: C_61  and  N_75 
REMARK   31  A    between atoms: C_62  and  C_63 
REMARK   32  A    between atoms: C_63  and  C_64 
REMARK   33  A    between atoms: C_63  and  N_89 
REMARK   34  A    between atoms: C_64  and  C_65 
REMARK   35  A    between atoms: C_65  and  C_66 
REMARK   36  A    between atoms: C_65  and  N_79 
REMARK   37  A    between atoms: C_66  and  C_67 
REMARK   38  A    between atoms: C_67  and  C_68 
REMARK   39  A    between atoms: C_67  and  N_94 
REMARK   40  A    between atoms: C_68  and  C_69 
REMARK   41  A    between atoms: C_69  and  N_84 
REMARK   42  A    between atoms: N_101  and  C_107 
REMARK   43  A    between atoms: C_106  and  C_107 
REMARK   44  A    between atoms: C_107  and  C_114 
REMARK   45  A    between atoms: N_110  and  C_116 
REMARK   46  A    between atoms: C_112  and  C_116 
REMARK   47  A    between atoms: C_112  and  C_118 
REMARK   48  A    between atoms: N_113  and  C_123 
REMARK   49  A    between atoms: C_114  and  C_118 
REMARK   50  A    between atoms: C_116  and  C_120 
REMARK   51  A    between atoms: N_117  and  C_118 
REMARK   52  A    between atoms: C_120  and  C_125 
REMARK   53  A    between atoms: C_123  and  C_124 
REMARK   54  A    between atoms: C_124  and  C_125 
REMARK   55  A    between atoms: C_125  and  N_128 
REMARK   56  A    between atoms: C_135  and  C_136 
REMARK   57  A    between atoms: C_136  and  O_138 
REMARK   58  A    between atoms: C_141  and  C_142 
REMARK   59  A    between atoms: C_142  and  O_143 
REMARK   60  A    between atoms: C_157  and  O_158 
ROOT
HETATM    1  C   UNL     1       0.651   3.897  15.214  1.00  0.00     0.187 C 
HETATM    2  C   UNL     1       1.388   5.205  15.714  1.00  0.00     0.180 C 
HETATM    3  C   UNL     1      -0.596   4.174  14.311  1.00  0.00     0.183 C 
HETATM    4  C   UNL     1      -0.414   5.427  13.396  1.00  0.00     0.208 C 
HETATM    5  C   UNL     1      -0.069   6.537  14.432  1.00  0.00     0.292 C 
HETATM    6  C   UNL     1       1.065   5.610  17.189  1.00  0.00     0.203 C 
HETATM    7  O   UNL     1       1.780   6.710  17.756  1.00  0.00    -0.370 OA
HETATM    8  O   UNL     1       1.273   6.326  14.829  1.00  0.00    -0.348 OA
HETATM    9  O   UNL     1      -0.274   7.875  13.952  1.00  0.00    -0.348 OA
HETATM   10  O   UNL     1      -1.283  11.094  15.215  1.00  0.00    -0.348 OA
HETATM   11  C   UNL     1      -0.628   9.853  15.462  1.00  0.00     0.180 C 
HETATM   12  O   UNL     1      -0.014  10.779  17.625  1.00  0.00    -0.304 OA
HETATM   13  C   UNL     1      -2.453   9.076  13.846  1.00  0.00     0.183 C 
HETATM   14  C   UNL     1      -1.255   8.629  14.714  1.00  0.00     0.187 C 
HETATM   15  C   UNL     1      -2.698  11.136  15.354  1.00  0.00     0.292 C 
HETATM   16  C   UNL     1      -0.487   9.641  16.981  1.00  0.00     0.215 C 
HETATM   17  C   UNL     1      -3.397   9.867  14.787  1.00  0.00     0.204 C 
HETATM   18 NA   UNL     1       4.942   8.466  15.036  1.00  0.00     0.050 Na
HETATM   19  C   UNL     1       2.791   7.218  16.917  1.00  0.00     0.261 C 
HETATM   20  C   UNL     1       4.042   7.544  17.671  1.00  0.00     0.310 C 
HETATM   21  O   UNL     1       5.090   8.071  17.010  1.00  0.00    -0.185 OA
HETATM   22  O   UNL     1       4.122   7.348  18.872  1.00  0.00    -0.261 OA
HETATM   23 NA   UNL     1       3.768  11.118  16.104  1.00  0.00     0.051 Na
HETATM   24  C   UNL     1       1.214  12.457  16.524  1.00  0.00     0.146 C 
HETATM   25  C   UNL     1       1.223  11.344  17.534  1.00  0.00     0.314 C 
HETATM   26  O   UNL     1       2.162  10.468  17.130  1.00  0.00    -0.172 OA
HETATM   27  O   UNL     1       1.525  11.858  18.598  1.00  0.00    -0.242 OA
ENDROOT
BRANCH   1  28
HETATM   28  O   UNL     1       1.576   3.064  14.524  1.00  0.00    -0.348 OA
BRANCH  28  29
HETATM   29  C   UNL     1       1.439   1.667  14.834  1.00  0.00     0.292 C 
HETATM   30  O   UNL     1       0.555   1.525  15.940  1.00  0.00    -0.348 OA
HETATM   31  C   UNL     1       0.361   0.173  16.393  1.00  0.00     0.180 C 
HETATM   32  C   UNL     1       1.644  -0.722  16.353  1.00  0.00     0.187 C 
HETATM   33  C   UNL     1       2.887   0.165  16.353  1.00  0.00     0.183 C 
HETATM   34  C   UNL     1       2.851   1.060  15.099  1.00  0.00     0.204 C 
BRANCH  31  35
HETATM   35  C   UNL     1      -0.832  -0.526  15.684  1.00  0.00     0.203 C 
BRANCH  35  36
HETATM   36  O   UNL     1      -0.486  -1.192  14.489  1.00  0.00    -0.370 OA
BRANCH  36  37
HETATM   37  C   UNL     1      -1.415  -0.899  13.483  1.00  0.00     0.262 C 
BRANCH  37  38
HETATM   38  C   UNL     1      -0.721  -0.133  12.405  1.00  0.00     0.321 C 
HETATM   39  O   UNL     1      -1.342   0.670  11.725  1.00  0.00    -0.260 OA
BRANCH  38  40
HETATM   40  O   UNL     1       0.596  -0.307  12.197  1.00  0.00    -0.147 OA
HETATM   41 NA   UNL     1       1.626  -1.611  13.331  1.00  0.00     0.000 Na
ENDBRANCH  38  40
ENDBRANCH  37  38
ENDBRANCH  36  37
ENDBRANCH  35  36
ENDBRANCH  31  35
BRANCH  32  42
HETATM   42  O   UNL     1       1.719  -1.537  17.517  1.00  0.00    -0.348 OA
BRANCH  42  43
HETATM   43  C   UNL     1       1.926  -2.915  17.286  1.00  0.00     0.292 C 
HETATM   44  O   UNL     1       1.376  -3.232  16.004  1.00  0.00    -0.351 OA
HETATM   45  C   UNL     1       0.471  -4.323  15.983  1.00  0.00     0.151 C 
HETATM   46  C   UNL     1       1.074  -5.557  16.693  1.00  0.00     0.068 C 
HETATM   47  C   UNL     1       1.540  -5.236  18.139  1.00  0.00     0.154 C 
HETATM   48  C   UNL     1       1.368  -3.744  18.501  1.00  0.00     0.205 C 
BRANCH  45  49
HETATM   49  C   UNL     1       0.160  -4.677  14.512  1.00  0.00     0.200 C 
BRANCH  49  50
HETATM   50  O   UNL     1      -0.027  -6.065  14.307  1.00  0.00    -0.379 OA
BRANCH  50  51
HETATM   51  C   UNL     1      -0.201  -6.394  12.942  1.00  0.00     0.281 C 
BRANCH  51  52
HETATM   52  C   UNL     1      -1.650  -6.250  12.570  1.00  0.00     0.313 C 
HETATM   53  O   UNL     1      -2.505  -6.943  13.100  1.00  0.00    -0.260 OA
BRANCH  52  54
HETATM   54  O   UNL     1      -2.017  -5.350  11.637  1.00  0.00    -0.148 OA
HETATM   55 NA   UNL     1      -0.659  -4.548  10.387  1.00  0.00     0.000 Na
ENDBRANCH  52  54
ENDBRANCH  51  52
ENDBRANCH  50  51
ENDBRANCH  49  50
ENDBRANCH  45  49
BRANCH  47  56
HETATM   56  O   UNL     1       0.922  -6.070  19.088  1.00  0.00    -0.393 OA
HETATM   57  H   UNL     1      -0.039  -5.816  19.134  1.00  0.00     0.210 HD
ENDBRANCH  47  56
BRANCH  48  58
HETATM   58  O   UNL     1      -0.007  -3.524  18.786  1.00  0.00    -0.376 OA
BRANCH  58  59
HETATM   59  C   UNL     1      -0.264  -2.577  19.812  1.00  0.00     0.194 C 
BRANCH  59  60
HETATM   60  C   UNL     1      -1.561  -1.734  19.600  1.00  0.00     0.116 C 
BRANCH  60  61
HETATM   61  C   UNL     1      -2.392  -2.287  18.386  1.00  0.00     0.053 C 
BRANCH  61  62
HETATM   62  C   UNL     1      -3.600  -3.272  18.623  1.00  0.00     0.094 C 
BRANCH  62  63
HETATM   63  C   UNL     1      -4.981  -2.507  18.513  1.00  0.00     0.051 C 
BRANCH  63  64
HETATM   64  C   UNL     1      -5.502  -1.657  19.721  1.00  0.00     0.094 C 
BRANCH  64  65
HETATM   65  C   UNL     1      -5.784  -0.161  19.334  1.00  0.00     0.051 C 
BRANCH  65  66
HETATM   66  C   UNL     1      -6.169  -0.009  17.836  1.00  0.00     0.094 C 
BRANCH  66  67
HETATM   67  C   UNL     1      -7.674   0.304  17.539  1.00  0.00     0.051 C 
BRANCH  67  68
HETATM   68  C   UNL     1      -8.736   0.235  18.682  1.00  0.00     0.089 C 
HETATM   69  C   UNL     1      -8.922   1.637  19.289  1.00  0.00     0.033 C 
BRANCH  68  70
HETATM   70  N   UNL     1     -10.041  -0.282  18.302  1.00  0.00    -0.334 N 
HETATM   71  C   UNL     1     -11.185   0.503  18.061  1.00  0.00     0.210 A 
HETATM   72  N   UNL     1     -12.190  -0.218  17.748  1.00  0.00    -0.254 NA
HETATM   73  C   UNL     1     -11.740  -1.558  17.761  1.00  0.00     0.150 A 
HETATM   74  C   UNL     1     -10.450  -1.610  18.087  1.00  0.00     0.082 A 
ENDBRANCH  68  70
ENDBRANCH  67  68
ENDBRANCH  66  67
BRANCH  66  75
HETATM   75  N   UNL     1      -5.253   0.885  17.111  1.00  0.00    -0.345 N 
HETATM   76  C   UNL     1      -4.322   0.562  16.188  1.00  0.00     0.209 A 
HETATM   77  N   UNL     1      -3.673   1.648  15.721  1.00  0.00    -0.255 NA
HETATM   78  C   UNL     1      -4.225   2.689  16.373  1.00  0.00     0.135 A 
HETATM   79  C   UNL     1      -5.200   2.224  17.226  1.00  0.00     0.111 A 
ENDBRANCH  66  75
ENDBRANCH  65  66
ENDBRANCH  64  65
BRANCH  64  80
HETATM   80  N   UNL     1      -6.753  -2.219  20.271  1.00  0.00    -0.345 N 
HETATM   81  C   UNL     1      -7.539  -3.193  19.764  1.00  0.00     0.209 A 
HETATM   82  N   UNL     1      -8.587  -3.472  20.567  1.00  0.00    -0.255 NA
HETATM   83  C   UNL     1      -8.448  -2.648  21.623  1.00  0.00     0.135 A 
HETATM   84  C   UNL     1      -7.319  -1.884  21.450  1.00  0.00     0.111 A 
ENDBRANCH  64  80
ENDBRANCH  63  64
ENDBRANCH  62  63
BRANCH  62  85
HETATM   85  N   UNL     1      -3.461  -4.558  17.900  1.00  0.00    -0.345 N 
HETATM   86  C   UNL     1      -3.479  -5.784  18.466  1.00  0.00     0.209 A 
HETATM   87  N   UNL     1      -3.246  -6.773  17.582  1.00  0.00    -0.255 NA
HETATM   88  C   UNL     1      -3.041  -6.144  16.413  1.00  0.00     0.135 A 
HETATM   89  C   UNL     1      -3.146  -4.787  16.607  1.00  0.00     0.111 A 
ENDBRANCH  62  85
ENDBRANCH  61  62
ENDBRANCH  60  61
BRANCH  60  90
HETATM   90  N   UNL     1      -1.309  -0.273  19.569  1.00  0.00    -0.343 N 
HETATM   91  C   UNL     1      -2.105   0.729  19.125  1.00  0.00     0.111 A 
HETATM   92  C   UNL     1      -1.441   1.921  19.291  1.00  0.00     0.135 A 
HETATM   93  N   UNL     1      -0.227   1.682  19.815  1.00  0.00    -0.255 NA
HETATM   94  C   UNL     1      -0.172   0.345  19.964  1.00  0.00     0.209 A 
ENDBRANCH  60  90
ENDBRANCH  59  60
ENDBRANCH  58  59
ENDBRANCH  48  58
ENDBRANCH  42  43
ENDBRANCH  32  42
BRANCH  33  95
HETATM   95  O   UNL     1       2.982   0.901  17.553  1.00  0.00    -0.390 OA
HETATM   96  H   UNL     1       3.133   0.282  18.311  1.00  0.00     0.210 HD
ENDBRANCH  33  95
BRANCH  34  97
HETATM   97  O   UNL     1       3.885   2.013  15.125  1.00  0.00    -0.388 OA
HETATM   98  H   UNL     1       3.921   2.446  14.235  1.00  0.00     0.210 HD
ENDBRANCH  34  97
ENDBRANCH  28  29
ENDBRANCH   1  28
BRANCH   3  99
HETATM   99  O   UNL     1      -0.934   3.033  13.567  1.00  0.00    -0.390 OA
HETATM  100  H   UNL     1      -0.879   2.258  14.186  1.00  0.00     0.210 HD
ENDBRANCH   3  99
BRANCH   4 101
HETATM  101  O   UNL     1       0.580   5.147  12.390  1.00  0.00    -0.376 OA
BRANCH 101 102
HETATM  102  C   UNL     1       0.328   5.735  11.114  1.00  0.00     0.194 C 
BRANCH 102 103
HETATM  103  C   UNL     1       1.542   6.604  10.576  1.00  0.00     0.116 C 
BRANCH 103 104
HETATM  104  N   UNL     1       2.652   6.680  11.560  1.00  0.00    -0.343 N 
HETATM  105  C   UNL     1       3.600   5.759  11.843  1.00  0.00     0.111 A 
HETATM  106  C   UNL     1       4.415   6.258  12.833  1.00  0.00     0.135 A 
HETATM  107  N   UNL     1       3.974   7.475  13.194  1.00  0.00    -0.255 NA
HETATM  108  C   UNL     1       2.900   7.701  12.412  1.00  0.00     0.209 A 
ENDBRANCH 103 104
BRANCH 103 109
HETATM  109  C   UNL     1       1.961   6.124   9.133  1.00  0.00     0.053 C 
BRANCH 109 110
HETATM  110  C   UNL     1       1.301   6.612   7.773  1.00  0.00     0.094 C 
BRANCH 110 111
HETATM  111  C   UNL     1       0.297   5.576   7.106  1.00  0.00     0.051 C 
BRANCH 111 112
HETATM  112  C   UNL     1       0.124   5.567   5.531  1.00  0.00     0.094 C 
BRANCH 112 113
HETATM  113  N   UNL     1      -0.673   4.426   5.045  1.00  0.00    -0.345 N 
HETATM  114  C   UNL     1      -1.667   3.785   5.688  1.00  0.00     0.111 A 
HETATM  115  C   UNL     1      -2.076   2.731   4.899  1.00  0.00     0.135 A 
HETATM  116  N   UNL     1      -1.330   2.699   3.778  1.00  0.00    -0.255 NA
HETATM  117  C   UNL     1      -0.480   3.737   3.899  1.00  0.00     0.209 A 
ENDBRANCH 112 113
BRANCH 112 118
HETATM  118  C   UNL     1       1.470   5.568   4.710  1.00  0.00     0.051 C 
BRANCH 118 119
HETATM  119  C   UNL     1       1.288   6.167   3.281  1.00  0.00     0.094 C 
BRANCH 119 120
HETATM  120  C   UNL     1       0.661   7.603   3.193  1.00  0.00     0.051 C 
BRANCH 120 121
HETATM  121  C   UNL     1      -0.554   7.894   2.246  1.00  0.00     0.089 C 
HETATM  122  C   UNL     1      -0.069   7.950   0.787  1.00  0.00     0.033 C 
BRANCH 121 123
HETATM  123  N   UNL     1      -1.659   6.953   2.327  1.00  0.00    -0.334 N 
HETATM  124  C   UNL     1      -2.649   6.817   3.319  1.00  0.00     0.082 A 
HETATM  125  C   UNL     1      -3.421   5.800   2.938  1.00  0.00     0.150 A 
HETATM  126  N   UNL     1      -2.959   5.257   1.718  1.00  0.00    -0.254 NA
HETATM  127  C   UNL     1      -1.934   5.941   1.385  1.00  0.00     0.210 A 
ENDBRANCH 121 123
ENDBRANCH 120 121
ENDBRANCH 119 120
BRANCH 119 128
HETATM  128  N   UNL     1       2.546   6.080   2.514  1.00  0.00    -0.345 N 
HETATM  129  C   UNL     1       3.118   7.036   1.747  1.00  0.00     0.209 A 
HETATM  130  N   UNL     1       4.282   6.629   1.206  1.00  0.00    -0.255 NA
HETATM  131  C   UNL     1       4.449   5.371   1.657  1.00  0.00     0.135 A 
HETATM  132  C   UNL     1       3.386   5.030   2.465  1.00  0.00     0.111 A 
ENDBRANCH 119 128
ENDBRANCH 118 119
ENDBRANCH 112 118
ENDBRANCH 111 112
ENDBRANCH 110 111
BRANCH 110 133
HETATM  133  N   UNL     1       0.870   8.035   7.817  1.00  0.00    -0.345 N 
HETATM  134  C   UNL     1       1.523   9.147   7.430  1.00  0.00     0.111 A 
HETATM  135  C   UNL     1       0.682  10.227   7.576  1.00  0.00     0.135 A 
HETATM  136  N   UNL     1      -0.513   9.797   8.008  1.00  0.00    -0.255 NA
HETATM  137  C   UNL     1      -0.373   8.460   8.125  1.00  0.00     0.209 A 
ENDBRANCH 110 133
ENDBRANCH 109 110
ENDBRANCH 103 109
ENDBRANCH 102 103
ENDBRANCH 101 102
ENDBRANCH   4 101
BRANCH  13 138
HETATM  138  O   UNL     1      -2.042   9.886  12.774  1.00  0.00    -0.390 OA
HETATM  139  H   UNL     1      -2.667  10.656  12.747  1.00  0.00     0.210 HD
ENDBRANCH  13 138
BRANCH  17 140
HETATM  140  O   UNL     1      -4.648  10.156  14.211  1.00  0.00    -0.388 OA
HETATM  141  H   UNL     1      -5.048   9.301  13.910  1.00  0.00     0.210 HD
ENDBRANCH  17 140
BRANCH  15 142
HETATM  142  O   UNL     1      -3.117  12.276  14.615  1.00  0.00    -0.348 OA
BRANCH 142 143
HETATM  143  C   UNL     1      -2.074  13.191  14.283  1.00  0.00     0.187 C 
HETATM  144  C   UNL     1      -2.370  13.950  12.923  1.00  0.00     0.177 C 
HETATM  145  O   UNL     1      -1.770  15.254  12.849  1.00  0.00    -0.378 OA
HETATM  146  C   UNL     1      -0.570  15.336  13.581  1.00  0.00     0.202 C 
HETATM  147  C   UNL     1      -0.859  15.267  15.096  1.00  0.00     0.173 C 
HETATM  148  C   UNL     1      -1.998  14.249  15.401  1.00  0.00     0.180 C 
BRANCH 144 149
HETATM  149  C   UNL     1      -1.964  13.131  11.684  1.00  0.00     0.215 C 
BRANCH 149 150
HETATM  150  O   UNL     1      -2.578  13.425  10.462  1.00  0.00    -0.303 OA
BRANCH 150 151
HETATM  151  C   UNL     1      -2.236  13.932   9.234  1.00  0.00     0.323 C 
HETATM  152  C   UNL     1      -3.372  14.176   8.274  1.00  0.00     0.147 C 
HETATM  153  O   UNL     1      -1.690  15.013   9.393  1.00  0.00    -0.241 OA
BRANCH 151 154
HETATM  154  O   UNL     1      -1.408  13.078   8.601  1.00  0.00    -0.132 OA
HETATM  155 NA   UNL     1      -2.119  11.514   7.542  1.00  0.00     0.000 Na
ENDBRANCH 151 154
ENDBRANCH 150 151
ENDBRANCH 149 150
ENDBRANCH 144 149
BRANCH 147 156
HETATM  156  O   UNL     1      -1.143  16.526  15.659  1.00  0.00    -0.391 OA
HETATM  157  H   UNL     1      -0.739  17.224  15.080  1.00  0.00     0.210 HD
ENDBRANCH 147 156
BRANCH 148 158
HETATM  158  O   UNL     1      -3.252  14.880  15.556  1.00  0.00    -0.390 OA
HETATM  159  H   UNL     1      -3.927  14.211  15.832  1.00  0.00     0.210 HD
ENDBRANCH 148 158
ENDBRANCH 142 143
ENDBRANCH  15 142
TORSDOF 60
ENDMDL
