MODEL 1
REMARK VINA RESULT:      -7.9      0.000      0.000
REMARK WARNING: 32 MAX_TORS EXCEEDED!!!
REMARK  61 active torsions:
REMARK  status: ('A' for Active; 'I' for Inactive)
REMARK    1  A    between atoms: C_1  and  O_30 
REMARK    2  A    between atoms: C_2  and  C_6 
REMARK    3  A    between atoms: C_3  and  O_9 
REMARK    4  A    between atoms: C_4  and  O_11 
REMARK    5  A    between atoms: C_5  and  O_12 
REMARK    6  A    between atoms: C_6  and  O_7 
REMARK    7  A    between atoms: O_7  and  C_147 
REMARK    8  A    between atoms: O_11  and  C_107 
REMARK    9  A    between atoms: O_12  and  C_20 
REMARK   10  A    between atoms: O_14  and  C_18 
REMARK   11  A    between atoms: O_21  and  C_24 
REMARK   12  A    between atoms: O_26  and  C_29 
REMARK   13  A    between atoms: C_28  and  C_34 
REMARK   14  A    between atoms: O_30  and  C_33 
REMARK   15  A    between atoms: C_31  and  O_53 
REMARK   16  A    between atoms: O_32  and  C_35 
REMARK   17  A    between atoms: C_34  and  O_59 
REMARK   18  A    between atoms: O_37  and  C_41 
REMARK   19  A    between atoms: O_43  and  C_46 
REMARK   20  A    between atoms: O_48  and  C_52 
REMARK   21  A    between atoms: C_50  and  C_57 
REMARK   22  A    between atoms: O_51  and  C_57 
REMARK   23  A    between atoms: O_51  and  C_60 
REMARK   24  A    between atoms: O_53  and  C_56 
REMARK   25  A    between atoms: O_55  and  C_58 
REMARK   26  A    between atoms: O_55  and  C_61 
REMARK   27  A    between atoms: O_59  and  C_142 
REMARK   28  A    between atoms: C_60  and  C_137 
REMARK   29  A    between atoms: C_61  and  C_62 
REMARK   30  A    between atoms: C_62  and  C_63 
REMARK   31  A    between atoms: C_62  and  N_76 
REMARK   32  A    between atoms: C_63  and  C_64 
REMARK   33  A    between atoms: C_64  and  C_65 
REMARK   34  A    between atoms: C_64  and  N_90 
REMARK   35  A    between atoms: C_65  and  C_66 
REMARK   36  A    between atoms: C_66  and  C_67 
REMARK   37  A    between atoms: C_66  and  N_80 
REMARK   38  A    between atoms: C_67  and  C_68 
REMARK   39  A    between atoms: C_68  and  C_69 
REMARK   40  A    between atoms: C_68  and  N_95 
REMARK   41  A    between atoms: C_69  and  C_70 
REMARK   42  A    between atoms: C_70  and  N_85 
REMARK   43  A    between atoms: N_102  and  C_108 
REMARK   44  A    between atoms: C_107  and  C_108 
REMARK   45  A    between atoms: C_108  and  C_115 
REMARK   46  A    between atoms: N_111  and  C_117 
REMARK   47  A    between atoms: C_113  and  C_117 
REMARK   48  A    between atoms: C_113  and  C_119 
REMARK   49  A    between atoms: N_114  and  C_124 
REMARK   50  A    between atoms: C_115  and  C_119 
REMARK   51  A    between atoms: C_117  and  C_121 
REMARK   52  A    between atoms: N_118  and  C_119 
REMARK   53  A    between atoms: C_121  and  C_126 
REMARK   54  A    between atoms: C_124  and  C_125 
REMARK   55  A    between atoms: C_125  and  C_126 
REMARK   56  A    between atoms: C_126  and  N_129 
REMARK   57  A    between atoms: C_137  and  O_139 
REMARK   58  A    between atoms: C_142  and  C_144 
REMARK   59  A    between atoms: O_143  and  C_144 
REMARK   60  A    between atoms: C_147  and  C_149 
REMARK   61  A    between atoms: O_148  and  C_149 
ROOT
HETATM    1  C   UNL     1       0.381   5.627  15.824  1.00  0.00     0.187 C 
HETATM    2  C   UNL     1       1.727   5.941  16.570  1.00  0.00     0.180 C 
HETATM    3  C   UNL     1      -0.256   6.896  15.207  1.00  0.00     0.183 C 
HETATM    4  C   UNL     1       0.813   7.746  14.452  1.00  0.00     0.208 C 
HETATM    5  C   UNL     1       1.861   8.062  15.547  1.00  0.00     0.292 C 
HETATM    6  O   UNL     1       2.568   6.873  15.869  1.00  0.00    -0.348 OA
ENDROOT
BRANCH   1   7
HETATM    7  O   UNL     1       0.618   4.693  14.784  1.00  0.00    -0.348 OA
BRANCH   7   8
HETATM    8  C   UNL     1       0.402   3.334  15.173  1.00  0.00     0.292 C 
HETATM    9  O   UNL     1       1.227   2.505  14.379  1.00  0.00    -0.348 OA
HETATM   10  C   UNL     1       1.155   1.116  14.731  1.00  0.00     0.180 C 
HETATM   11  C   UNL     1      -0.232   0.648  15.286  1.00  0.00     0.187 C 
HETATM   12  C   UNL     1      -1.319   1.492  14.624  1.00  0.00     0.183 C 
HETATM   13  C   UNL     1      -1.110   2.974  15.033  1.00  0.00     0.204 C 
BRANCH  10  14
HETATM   14  C   UNL     1       2.302   0.724  15.672  1.00  0.00     0.203 C 
BRANCH  14  15
HETATM   15  O   UNL     1       1.823   0.687  16.998  1.00  0.00    -0.379 OA
BRANCH  15  16
HETATM   16  C   UNL     1       2.416   1.726  17.745  1.00  0.00     0.281 C 
BRANCH  16  17
HETATM   17  C   UNL     1       3.497   1.144  18.600  1.00  0.00     0.313 C 
HETATM   18  O   UNL     1       4.672   1.334  18.328  1.00  0.00    -0.260 OA
BRANCH  17  19
HETATM   19  O   UNL     1       3.172   0.405  19.678  1.00  0.00    -0.148 OA
HETATM   20 Na   UNL     1       3.234  -1.607  19.568  1.00  0.00     0.000 Na
ENDBRANCH  17  19
ENDBRANCH  16  17
ENDBRANCH  15  16
ENDBRANCH  14  15
ENDBRANCH  10  14
BRANCH  11  21
HETATM   21  O   UNL     1      -0.450  -0.716  14.957  1.00  0.00    -0.348 OA
BRANCH  21  22
HETATM   22  C   UNL     1      -1.808  -1.119  14.969  1.00  0.00     0.292 C 
HETATM   23  O   UNL     1      -2.301  -0.924  16.291  1.00  0.00    -0.351 OA
HETATM   24  C   UNL     1      -3.553  -1.553  16.590  1.00  0.00     0.151 C 
HETATM   25  C   UNL     1      -4.313  -2.048  15.338  1.00  0.00     0.068 C 
HETATM   26  C   UNL     1      -3.435  -2.993  14.481  1.00  0.00     0.154 C 
HETATM   27  C   UNL     1      -1.923  -2.609  14.530  1.00  0.00     0.205 C 
BRANCH  24  28
HETATM   28  C   UNL     1      -4.421  -0.545  17.355  1.00  0.00     0.200 C 
BRANCH  28  29
HETATM   29  O   UNL     1      -5.237   0.158  16.440  1.00  0.00    -0.379 OA
BRANCH  29  30
HETATM   30  C   UNL     1      -5.619   1.402  16.992  1.00  0.00     0.281 C 
BRANCH  30  31
HETATM   31  C   UNL     1      -4.602   2.434  16.608  1.00  0.00     0.313 C 
HETATM   32  O   UNL     1      -3.832   2.881  17.443  1.00  0.00    -0.260 OA
BRANCH  31  33
HETATM   33  O   UNL     1      -4.532   2.872  15.336  1.00  0.00    -0.148 OA
HETATM   34 Na   UNL     1      -3.838   4.718  14.927  1.00  0.00     0.000 Na
ENDBRANCH  31  33
ENDBRANCH  30  31
ENDBRANCH  29  30
ENDBRANCH  28  29
ENDBRANCH  24  28
BRANCH  26  35
HETATM   35  O   UNL     1      -3.634  -4.353  14.790  1.00  0.00    -0.393 OA
HETATM   36  H   UNL     1      -4.403  -4.421  15.415  1.00  0.00     0.210 HD
ENDBRANCH  26  35
BRANCH  27  37
HETATM   37  O   UNL     1      -1.193  -3.539  15.428  1.00  0.00    -0.376 OA
BRANCH  37  38
HETATM   38  C   UNL     1      -0.267  -4.488  14.775  1.00  0.00     0.194 C 
BRANCH  38  39
HETATM   39  C   UNL     1       0.641  -5.240  15.796  1.00  0.00     0.116 C 
BRANCH  39  40
HETATM   40  C   UNL     1      -0.291  -6.064  16.778  1.00  0.00     0.053 C 
BRANCH  40  41
HETATM   41  C   UNL     1      -1.278  -7.159  16.233  1.00  0.00     0.094 C 
BRANCH  41  42
HETATM   42  C   UNL     1      -0.425  -8.362  15.641  1.00  0.00     0.051 C 
BRANCH  42  43
HETATM   43  C   UNL     1      -0.662  -9.003  14.227  1.00  0.00     0.094 C 
BRANCH  43  44
HETATM   44  C   UNL     1      -0.542  -7.933  13.094  1.00  0.00     0.051 C 
BRANCH  44  45
HETATM   45  C   UNL     1      -1.783  -7.926  12.167  1.00  0.00     0.094 C 
BRANCH  45  46
HETATM   46  C   UNL     1      -3.170  -7.727  12.862  1.00  0.00     0.051 C 
BRANCH  46  47
HETATM   47  C   UNL     1      -4.304  -8.781  12.683  1.00  0.00     0.089 C 
HETATM   48  C   UNL     1      -4.170  -9.455  11.308  1.00  0.00     0.033 C 
BRANCH  47  49
HETATM   49  N   UNL     1      -4.332  -9.818  13.702  1.00  0.00    -0.334 N 
HETATM   50  C   UNL     1      -5.044  -9.756  14.915  1.00  0.00     0.210 A 
HETATM   51  N   UNL     1      -4.926 -10.838  15.583  1.00  0.00    -0.254 NA
HETATM   52  C   UNL     1      -4.113 -11.700  14.812  1.00  0.00     0.150 A 
HETATM   53  C   UNL     1      -3.756 -11.105  13.677  1.00  0.00     0.082 A 
ENDBRANCH  47  49
ENDBRANCH  46  47
ENDBRANCH  45  46
BRANCH  45  54
HETATM   54  N   UNL     1      -1.569  -6.925  11.087  1.00  0.00    -0.339 N 
HETATM   55  C   UNL     1      -1.743  -5.587  11.207  1.00  0.00     0.209 A 
HETATM   56  N   UNL     1      -1.437  -4.920  10.076  1.00  0.00    -0.254 NA
HETATM   57  C   UNL     1      -1.051  -5.870   9.209  1.00  0.00     0.142 A 
HETATM   58  C   UNL     1      -1.126  -7.104   9.823  1.00  0.00     0.026 A 
HETATM   59  C   UNL     1      -0.761  -8.391   9.151  1.00  0.00     0.070 C 
ENDBRANCH  45  54
ENDBRANCH  44  45
ENDBRANCH  43  44
BRANCH  43  60
HETATM   60  N   UNL     1       0.321 -10.062  13.936  1.00  0.00    -0.345 N 
HETATM   61  C   UNL     1       0.202 -11.377  14.214  1.00  0.00     0.209 A 
HETATM   62  N   UNL     1       1.256 -12.089  13.774  1.00  0.00    -0.255 NA
HETATM   63  C   UNL     1       2.062 -11.185  13.183  1.00  0.00     0.135 A 
HETATM   64  C   UNL     1       1.485  -9.939  13.269  1.00  0.00     0.111 A 
ENDBRANCH  43  60
ENDBRANCH  42  43
ENDBRANCH  41  42
BRANCH  41  65
HETATM   65  N   UNL     1      -2.407  -7.480  17.134  1.00  0.00    -0.339 N 
HETATM   66  C   UNL     1      -3.704  -6.951  16.968  1.00  0.00     0.209 A 
HETATM   67  N   UNL     1      -4.557  -7.308  18.020  1.00  0.00    -0.254 NA
HETATM   68  C   UNL     1      -3.719  -7.973  18.926  1.00  0.00     0.142 A 
HETATM   69  C   UNL     1      -2.470  -8.046  18.460  1.00  0.00     0.026 A 
HETATM   70  C   UNL     1      -1.362  -8.566  19.346  1.00  0.00     0.070 C 
ENDBRANCH  41  65
ENDBRANCH  40  41
ENDBRANCH  39  40
BRANCH  39  71
HETATM   71  N   UNL     1       1.667  -4.365  16.425  1.00  0.00    -0.343 N 
HETATM   72  C   UNL     1       2.117  -3.151  16.028  1.00  0.00     0.111 A 
HETATM   73  C   UNL     1       3.095  -2.733  16.899  1.00  0.00     0.135 A 
HETATM   74  N   UNL     1       3.288  -3.681  17.831  1.00  0.00    -0.255 NA
HETATM   75  C   UNL     1       2.421  -4.659  17.510  1.00  0.00     0.209 A 
ENDBRANCH  39  71
ENDBRANCH  38  39
ENDBRANCH  37  38
ENDBRANCH  27  37
ENDBRANCH  21  22
ENDBRANCH  11  21
BRANCH  12  76
HETATM   76  O   UNL     1      -1.313   1.293  13.226  1.00  0.00    -0.390 OA
HETATM   77  H   UNL     1      -1.930   0.554  12.992  1.00  0.00     0.210 HD
ENDBRANCH  12  76
BRANCH  13  78
HETATM   78  O   UNL     1      -1.830   3.855  14.121  1.00  0.00    -0.388 OA
HETATM   79  H   UNL     1      -1.340   4.686  14.021  1.00  0.00     0.210 HD
ENDBRANCH  13  78
ENDBRANCH   7   8
ENDBRANCH   1   7
BRANCH   2  80
HETATM   80  C   UNL     1       1.512   6.341  18.053  1.00  0.00     0.203 C 
BRANCH  80  81
HETATM   81  O   UNL     1       2.691   6.115  18.803  1.00  0.00    -0.379 OA
BRANCH  81  82
HETATM   82  C   UNL     1       3.006   7.224  19.617  1.00  0.00     0.281 C 
BRANCH  82  83
HETATM   83  C   UNL     1       3.977   8.093  18.879  1.00  0.00     0.313 C 
HETATM   84  O   UNL     1       3.957   9.303  19.043  1.00  0.00    -0.260 OA
BRANCH  83  85
HETATM   85  O   UNL     1       4.874   7.554  18.031  1.00  0.00    -0.148 OA
HETATM   86 Na   UNL     1       4.757   7.841  16.041  1.00  0.00     0.000 Na
ENDBRANCH  83  85
ENDBRANCH  82  83
ENDBRANCH  81  82
ENDBRANCH  80  81
ENDBRANCH   2  80
BRANCH   3  87
HETATM   87  O   UNL     1      -1.327   6.545  14.370  1.00  0.00    -0.390 OA
HETATM   88  H   UNL     1      -0.962   6.473  13.450  1.00  0.00     0.210 HD
ENDBRANCH   3  87
BRANCH   4  89
HETATM   89  O   UNL     1       1.353   6.998  13.276  1.00  0.00    -0.376 OA
BRANCH  89  90
HETATM   90  C   UNL     1       2.054   7.809  12.257  1.00  0.00     0.194 C 
BRANCH  90  91
HETATM   91  C   UNL     1       1.221   8.072  10.935  1.00  0.00     0.116 C 
BRANCH  91  92
HETATM   92  N   UNL     1       0.638   9.437  10.910  1.00  0.00    -0.343 N 
HETATM   93  C   UNL     1      -0.184   9.976   9.982  1.00  0.00     0.111 A 
HETATM   94  C   UNL     1      -0.463  11.273  10.341  1.00  0.00     0.135 A 
HETATM   95  N   UNL     1       0.189  11.565  11.480  1.00  0.00    -0.255 NA
HETATM   96  C   UNL     1       0.853  10.436  11.798  1.00  0.00     0.209 A 
ENDBRANCH  91  92
BRANCH  91  97
HETATM   97  C   UNL     1       2.044   7.659   9.649  1.00  0.00     0.053 C 
BRANCH  97  98
HETATM   98  C   UNL     1       2.114   6.168   9.116  1.00  0.00     0.094 C 
BRANCH  98  99
HETATM   99  C   UNL     1       2.633   5.986   7.639  1.00  0.00     0.051 C 
BRANCH  99 100
HETATM  100  C   UNL     1       1.603   6.232   6.488  1.00  0.00     0.094 C 
BRANCH 100 101
HETATM  101  N   UNL     1       0.217   6.280   6.991  1.00  0.00    -0.345 N 
HETATM  102  C   UNL     1      -0.586   5.226   7.242  1.00  0.00     0.111 A 
HETATM  103  C   UNL     1      -1.806   5.706   7.661  1.00  0.00     0.135 A 
HETATM  104  N   UNL     1      -1.776   7.052   7.660  1.00  0.00    -0.255 NA
HETATM  105  C   UNL     1      -0.535   7.371   7.242  1.00  0.00     0.209 A 
ENDBRANCH 100 101
BRANCH 100 106
HETATM  106  C   UNL     1       1.672   5.164   5.342  1.00  0.00     0.051 C 
BRANCH 106 107
HETATM  107  C   UNL     1       1.114   5.735   4.009  1.00  0.00     0.094 C 
BRANCH 107 108
HETATM  108  C   UNL     1       2.110   5.810   2.804  1.00  0.00     0.051 C 
BRANCH 108 109
HETATM  109  C   UNL     1       2.008   6.974   1.771  1.00  0.00     0.089 C 
HETATM  110  C   UNL     1       3.200   6.903   0.801  1.00  0.00     0.033 C 
BRANCH 109 111
HETATM  111  N   UNL     1       0.781   7.018   0.993  1.00  0.00    -0.334 N 
HETATM  112  C   UNL     1       0.153   5.996   0.256  1.00  0.00     0.082 A 
HETATM  113  C   UNL     1      -0.940   6.538  -0.277  1.00  0.00     0.150 A 
HETATM  114  N   UNL     1      -1.044   7.900   0.086  1.00  0.00    -0.254 NA
HETATM  115  C   UNL     1      -0.032   8.155   0.820  1.00  0.00     0.210 A 
ENDBRANCH 109 111
ENDBRANCH 108 109
ENDBRANCH 107 108
BRANCH 107 116
HETATM  116  N   UNL     1      -0.149   5.097   3.639  1.00  0.00    -0.339 N 
HETATM  117  C   UNL     1      -0.343   3.728   3.364  1.00  0.00     0.209 A 
HETATM  118  N   UNL     1      -1.701   3.468   3.108  1.00  0.00    -0.254 NA
HETATM  119  C   UNL     1      -2.332   4.723   3.246  1.00  0.00     0.142 A 
HETATM  120  C   UNL     1      -1.446   5.670   3.558  1.00  0.00     0.026 A 
HETATM  121  C   UNL     1      -1.816   7.109   3.782  1.00  0.00     0.070 C 
ENDBRANCH 107 116
ENDBRANCH 106 107
ENDBRANCH 100 106
ENDBRANCH  99 100
ENDBRANCH  98  99
BRANCH  98 122
HETATM  122  N   UNL     1       2.462   5.090  10.068  1.00  0.00    -0.339 N 
HETATM  123  C   UNL     1       1.739   4.279  11.000  1.00  0.00     0.026 A 
HETATM  124  C   UNL     1       2.549   3.381  11.563  1.00  0.00     0.142 A 
HETATM  125  C   UNL     1       0.295   4.293  11.335  1.00  0.00     0.070 C 
HETATM  126  N   UNL     1       3.842   3.461  11.025  1.00  0.00    -0.254 NA
HETATM  127  C   UNL     1       3.744   4.483  10.069  1.00  0.00     0.209 A 
ENDBRANCH  98 122
ENDBRANCH  97  98
ENDBRANCH  91  97
ENDBRANCH  90  91
ENDBRANCH  89  90
ENDBRANCH   4  89
BRANCH   5 128
HETATM  128  O   UNL     1       2.742   9.141  15.190  1.00  0.00    -0.348 OA
BRANCH 128 129
HETATM  129  C   UNL     1       2.554  10.277  16.060  1.00  0.00     0.187 C 
HETATM  130  C   UNL     1       3.608  11.399  15.836  1.00  0.00     0.180 C 
HETATM  131  O   UNL     1       3.516  12.369  16.876  1.00  0.00    -0.348 OA
HETATM  132  C   UNL     1       5.037  10.839  15.832  1.00  0.00     0.203 C 
HETATM  133  C   UNL     1       2.249  13.015  16.929  1.00  0.00     0.292 C 
HETATM  134  O   UNL     1       2.149  13.983  15.884  1.00  0.00    -0.348 OA
HETATM  135  C   UNL     1       1.059  12.014  16.974  1.00  0.00     0.204 C 
HETATM  136  C   UNL     1       2.216  15.325  16.381  1.00  0.00     0.187 C 
HETATM  137  C   UNL     1       3.166  16.215  15.506  1.00  0.00     0.176 C 
HETATM  138  C   UNL     1       0.824  15.981  16.395  1.00  0.00     0.180 C 
HETATM  139  O   UNL     1       2.963  17.631  15.660  1.00  0.00    -0.378 OA
HETATM  140  C   UNL     1       4.648  15.853  15.746  1.00  0.00     0.203 C 
HETATM  141  C   UNL     1       2.382  17.966  16.902  1.00  0.00     0.202 C 
HETATM  142  C   UNL     1       0.939  17.407  17.023  1.00  0.00     0.173 C 
HETATM  143  O   UNL     1       5.563  16.733  15.115  1.00  0.00    -0.379 OA
HETATM  144  C   UNL     1       5.390  16.776  13.715  1.00  0.00     0.280 C 
HETATM  145  C   UNL     1       6.668  17.235  13.084  1.00  0.00     0.308 C 
HETATM  146  O   UNL     1       7.166  18.299  13.415  1.00  0.00    -0.261 OA
HETATM  147  O   UNL     1       7.267  16.487  12.138  1.00  0.00    -0.158 OA
HETATM  148 Na   UNL     1       6.390  14.804  11.464  1.00  0.00    -0.020 Na
HETATM  149 Na   UNL     1       7.052  12.233  11.196  1.00  0.00     0.080 Na
HETATM  150  O   UNL     1       7.919  13.130  12.780  1.00  0.00    -0.180 OA
HETATM  151  C   UNL     1       7.457  12.906  14.025  1.00  0.00     0.302 C 
HETATM  152  C   UNL     1       6.304  11.969  14.228  1.00  0.00     0.280 C 
HETATM  153  O   UNL     1       7.988  13.462  14.973  1.00  0.00    -0.261 OA
HETATM  154  O   UNL     1       5.988  11.866  15.606  1.00  0.00    -0.379 OA
HETATM  155  C   UNL     1       1.162  10.907  15.902  1.00  0.00     0.183 C 
BRANCH 142 156
HETATM  156  O   UNL     1      -0.065  18.321  16.471  1.00  0.00    -0.391 OA
HETATM  157  H   UNL     1      -0.832  18.356  17.063  1.00  0.00     0.210 HD
ENDBRANCH 142 156
BRANCH 138 158
HETATM  158  O   UNL     1       0.275  15.988  15.095  1.00  0.00    -0.390 OA
HETATM  159  H   UNL     1       0.722  15.297  14.545  1.00  0.00     0.210 HD
ENDBRANCH 138 158
BRANCH 135 160
HETATM  160  O   UNL     1      -0.227  12.710  16.938  1.00  0.00    -0.388 OA
HETATM  161  H   UNL     1      -0.077  13.660  16.810  1.00  0.00     0.210 HD
ENDBRANCH 135 160
BRANCH 155 162
HETATM  162  O   UNL     1       0.989  11.444  14.615  1.00  0.00    -0.390 OA
HETATM  163  H   UNL     1       1.164  12.417  14.687  1.00  0.00     0.210 HD
ENDBRANCH 155 162
ENDBRANCH 128 129
ENDBRANCH   5 128
TORSDOF 61
ENDMDL
MODEL 2
REMARK VINA RESULT:      -7.5      4.690     17.286
REMARK WARNING: 32 MAX_TORS EXCEEDED!!!
REMARK  61 active torsions:
REMARK  status: ('A' for Active; 'I' for Inactive)
REMARK    1  A    between atoms: C_1  and  O_30 
REMARK    2  A    between atoms: C_2  and  C_6 
REMARK    3  A    between atoms: C_3  and  O_9 
REMARK    4  A    between atoms: C_4  and  O_11 
REMARK    5  A    between atoms: C_5  and  O_12 
REMARK    6  A    between atoms: C_6  and  O_7 
REMARK    7  A    between atoms: O_7  and  C_147 
REMARK    8  A    between atoms: O_11  and  C_107 
REMARK    9  A    between atoms: O_12  and  C_20 
REMARK   10  A    between atoms: O_14  and  C_18 
REMARK   11  A    between atoms: O_21  and  C_24 
REMARK   12  A    between atoms: O_26  and  C_29 
REMARK   13  A    between atoms: C_28  and  C_34 
REMARK   14  A    between atoms: O_30  and  C_33 
REMARK   15  A    between atoms: C_31  and  O_53 
REMARK   16  A    between atoms: O_32  and  C_35 
REMARK   17  A    between atoms: C_34  and  O_59 
REMARK   18  A    between atoms: O_37  and  C_41 
REMARK   19  A    between atoms: O_43  and  C_46 
REMARK   20  A    between atoms: O_48  and  C_52 
REMARK   21  A    between atoms: C_50  and  C_57 
REMARK   22  A    between atoms: O_51  and  C_57 
REMARK   23  A    between atoms: O_51  and  C_60 
REMARK   24  A    between atoms: O_53  and  C_56 
REMARK   25  A    between atoms: O_55  and  C_58 
REMARK   26  A    between atoms: O_55  and  C_61 
REMARK   27  A    between atoms: O_59  and  C_142 
REMARK   28  A    between atoms: C_60  and  C_137 
REMARK   29  A    between atoms: C_61  and  C_62 
REMARK   30  A    between atoms: C_62  and  C_63 
REMARK   31  A    between atoms: C_62  and  N_76 
REMARK   32  A    between atoms: C_63  and  C_64 
REMARK   33  A    between atoms: C_64  and  C_65 
REMARK   34  A    between atoms: C_64  and  N_90 
REMARK   35  A    between atoms: C_65  and  C_66 
REMARK   36  A    between atoms: C_66  and  C_67 
REMARK   37  A    between atoms: C_66  and  N_80 
REMARK   38  A    between atoms: C_67  and  C_68 
REMARK   39  A    between atoms: C_68  and  C_69 
REMARK   40  A    between atoms: C_68  and  N_95 
REMARK   41  A    between atoms: C_69  and  C_70 
REMARK   42  A    between atoms: C_70  and  N_85 
REMARK   43  A    between atoms: N_102  and  C_108 
REMARK   44  A    between atoms: C_107  and  C_108 
REMARK   45  A    between atoms: C_108  and  C_115 
REMARK   46  A    between atoms: N_111  and  C_117 
REMARK   47  A    between atoms: C_113  and  C_117 
REMARK   48  A    between atoms: C_113  and  C_119 
REMARK   49  A    between atoms: N_114  and  C_124 
REMARK   50  A    between atoms: C_115  and  C_119 
REMARK   51  A    between atoms: C_117  and  C_121 
REMARK   52  A    between atoms: N_118  and  C_119 
REMARK   53  A    between atoms: C_121  and  C_126 
REMARK   54  A    between atoms: C_124  and  C_125 
REMARK   55  A    between atoms: C_125  and  C_126 
REMARK   56  A    between atoms: C_126  and  N_129 
REMARK   57  A    between atoms: C_137  and  O_139 
REMARK   58  A    between atoms: C_142  and  C_144 
REMARK   59  A    between atoms: O_143  and  C_144 
REMARK   60  A    between atoms: C_147  and  C_149 
REMARK   61  A    between atoms: O_148  and  C_149 
ROOT
HETATM    1  C   UNL     1      -1.738   1.687  14.400  1.00  0.00     0.187 C 
HETATM    2  C   UNL     1      -0.661   0.547  14.468  1.00  0.00     0.180 C 
HETATM    3  C   UNL     1      -3.176   1.146  14.590  1.00  0.00     0.183 C 
HETATM    4  C   UNL     1      -3.244   0.153  15.791  1.00  0.00     0.208 C 
HETATM    5  C   UNL     1      -2.226  -0.949  15.406  1.00  0.00     0.292 C 
HETATM    6  O   UNL     1      -0.911  -0.419  15.504  1.00  0.00    -0.348 OA
ENDROOT
BRANCH   1   7
HETATM    7  O   UNL     1      -1.483   2.647  15.411  1.00  0.00    -0.348 OA
BRANCH   7   8
HETATM    8  C   UNL     1      -1.309   3.975  14.912  1.00  0.00     0.292 C 
HETATM    9  O   UNL     1       0.035   4.128  14.504  1.00  0.00    -0.348 OA
HETATM   10  C   UNL     1       0.315   5.404  13.910  1.00  0.00     0.180 C 
HETATM   11  C   UNL     1      -0.541   6.591  14.466  1.00  0.00     0.187 C 
HETATM   12  C   UNL     1      -0.860   6.303  15.931  1.00  0.00     0.183 C 
HETATM   13  C   UNL     1      -1.718   5.012  16.005  1.00  0.00     0.204 C 
BRANCH  10  14
HETATM   14  C   UNL     1       0.248   5.327  12.379  1.00  0.00     0.203 C 
BRANCH  14  15
HETATM   15  O   UNL     1       1.534   5.552  11.845  1.00  0.00    -0.379 OA
BRANCH  15  16
HETATM   16  C   UNL     1       2.387   6.043  12.855  1.00  0.00     0.281 C 
BRANCH  16  17
HETATM   17  C   UNL     1       3.783   5.589  12.564  1.00  0.00     0.313 C 
HETATM   18  O   UNL     1       4.438   6.125  11.684  1.00  0.00    -0.260 OA
BRANCH  17  19
HETATM   19  O   UNL     1       4.322   4.582  13.277  1.00  0.00    -0.148 OA
HETATM   20 Na   UNL     1       4.040   2.675  12.686  1.00  0.00     0.000 Na
ENDBRANCH  17  19
ENDBRANCH  16  17
ENDBRANCH  15  16
ENDBRANCH  14  15
ENDBRANCH  10  14
BRANCH  11  21
HETATM   21  O   UNL     1       0.200   7.800  14.389  1.00  0.00    -0.348 OA
BRANCH  21  22
HETATM   22  C   UNL     1      -0.588   8.972  14.292  1.00  0.00     0.292 C 
HETATM   23  O   UNL     1      -1.955   8.572  14.304  1.00  0.00    -0.351 OA
HETATM   24  C   UNL     1      -2.902   9.571  13.909  1.00  0.00     0.151 C 
HETATM   25  C   UNL     1      -2.314  11.001  13.863  1.00  0.00     0.068 C 
HETATM   26  C   UNL     1      -1.062  11.066  12.954  1.00  0.00     0.154 C 
HETATM   27  C   UNL     1      -0.231   9.745  12.987  1.00  0.00     0.205 C 
BRANCH  24  28
HETATM   28  C   UNL     1      -4.078   9.529  14.894  1.00  0.00     0.200 C 
BRANCH  28  29
HETATM   29  O   UNL     1      -3.839  10.442  15.946  1.00  0.00    -0.379 OA
BRANCH  29  30
HETATM   30  C   UNL     1      -4.345   9.924  17.159  1.00  0.00     0.281 C 
BRANCH  30  31
HETATM   31  C   UNL     1      -3.639   8.638  17.467  1.00  0.00     0.313 C 
HETATM   32  O   UNL     1      -2.499   8.652  17.907  1.00  0.00    -0.260 OA
BRANCH  31  33
HETATM   33  O   UNL     1      -4.258   7.460  17.262  1.00  0.00    -0.148 OA
HETATM   34 Na   UNL     1      -3.974   6.438  15.551  1.00  0.00     0.000 Na
ENDBRANCH  31  33
ENDBRANCH  30  31
ENDBRANCH  29  30
ENDBRANCH  28  29
ENDBRANCH  24  28
BRANCH  26  35
HETATM   35  O   UNL     1      -1.364  11.454  11.634  1.00  0.00    -0.393 OA
HETATM   36  H   UNL     1      -2.349  11.407  11.514  1.00  0.00     0.210 HD
ENDBRANCH  26  35
BRANCH  27  37
HETATM   37  O   UNL     1      -0.484   8.957  11.755  1.00  0.00    -0.376 OA
BRANCH  37  38
HETATM   38  C   UNL     1       0.650   8.827  10.817  1.00  0.00     0.194 C 
BRANCH  38  39
HETATM   39  C   UNL     1       0.204   8.879   9.324  1.00  0.00     0.116 C 
BRANCH  39  40
HETATM   40  C   UNL     1       1.356   8.247   8.438  1.00  0.00     0.053 C 
BRANCH  40  41
HETATM   41  C   UNL     1       1.099   6.962   7.569  1.00  0.00     0.094 C 
BRANCH  41  42
HETATM   42  C   UNL     1       0.590   7.414   6.133  1.00  0.00     0.051 C 
BRANCH  42  43
HETATM   43  C   UNL     1      -0.774   6.968   5.498  1.00  0.00     0.094 C 
BRANCH  43  44
HETATM   44  C   UNL     1      -0.767   7.160   3.947  1.00  0.00     0.051 C 
BRANCH  44  45
HETATM   45  C   UNL     1      -0.510   5.829   3.197  1.00  0.00     0.094 C 
BRANCH  45  46
HETATM   46  C   UNL     1      -1.608   5.382   2.177  1.00  0.00     0.051 C 
BRANCH  46  47
HETATM   47  C   UNL     1      -2.211   6.403   1.165  1.00  0.00     0.089 C 
HETATM   48  C   UNL     1      -1.436   6.336  -0.160  1.00  0.00     0.033 C 
BRANCH  47  49
HETATM   49  N   UNL     1      -3.625   6.210   0.881  1.00  0.00    -0.334 N 
HETATM   50  C   UNL     1      -4.563   5.624   1.751  1.00  0.00     0.210 A 
HETATM   51  N   UNL     1      -5.739   5.642   1.254  1.00  0.00    -0.254 NA
HETATM   52  C   UNL     1      -5.632   6.272  -0.007  1.00  0.00     0.150 A 
HETATM   53  C   UNL     1      -4.371   6.627  -0.240  1.00  0.00     0.082 A 
ENDBRANCH  47  49
ENDBRANCH  46  47
ENDBRANCH  45  46
BRANCH  45  54
HETATM   54  N   UNL     1       0.832   5.889   2.557  1.00  0.00    -0.339 N 
HETATM   55  C   UNL     1       1.647   4.831   2.336  1.00  0.00     0.209 A 
HETATM   56  N   UNL     1       2.786   5.176   1.703  1.00  0.00    -0.254 NA
HETATM   57  C   UNL     1       2.687   6.501   1.511  1.00  0.00     0.142 A 
HETATM   58  C   UNL     1       1.487   6.947   2.030  1.00  0.00     0.026 A 
HETATM   59  C   UNL     1       1.041   8.374   1.983  1.00  0.00     0.070 C 
ENDBRANCH  45  54
ENDBRANCH  44  45
ENDBRANCH  43  44
BRANCH  43  60
HETATM   60  N   UNL     1      -1.060   5.546   5.762  1.00  0.00    -0.345 N 
HETATM   61  C   UNL     1      -0.211   4.508   5.616  1.00  0.00     0.209 A 
HETATM   62  N   UNL     1      -0.765   3.338   5.990  1.00  0.00    -0.255 NA
HETATM   63  C   UNL     1      -2.008   3.660   6.400  1.00  0.00     0.135 A 
HETATM   64  C   UNL     1      -2.189   5.019   6.274  1.00  0.00     0.111 A 
ENDBRANCH  43  60
ENDBRANCH  42  43
ENDBRANCH  41  42
BRANCH  41  65
HETATM   65  N   UNL     1       2.167   5.941   7.642  1.00  0.00    -0.339 N 
HETATM   66  C   UNL     1       2.679   5.443   8.858  1.00  0.00     0.209 A 
HETATM   67  N   UNL     1       3.766   4.581   8.659  1.00  0.00    -0.254 NA
HETATM   68  C   UNL     1       4.007   4.653   7.280  1.00  0.00     0.142 A 
HETATM   69  C   UNL     1       3.130   5.462   6.680  1.00  0.00     0.026 A 
HETATM   70  C   UNL     1       3.309   5.824   5.225  1.00  0.00     0.070 C 
ENDBRANCH  41  65
ENDBRANCH  40  41
ENDBRANCH  39  40
BRANCH  39  71
HETATM   71  N   UNL     1      -0.301  10.217   8.908  1.00  0.00    -0.343 N 
HETATM   72  C   UNL     1      -1.440  10.535   8.248  1.00  0.00     0.111 A 
HETATM   73  C   UNL     1      -1.473  11.895   8.049  1.00  0.00     0.135 A 
HETATM   74  N   UNL     1      -0.354  12.440   8.552  1.00  0.00    -0.255 NA
HETATM   75  C   UNL     1       0.340  11.400   9.052  1.00  0.00     0.209 A 
ENDBRANCH  39  71
ENDBRANCH  38  39
ENDBRANCH  37  38
ENDBRANCH  27  37
ENDBRANCH  21  22
ENDBRANCH  11  21
BRANCH  12  76
HETATM   76  O   UNL     1       0.331   6.224  16.687  1.00  0.00    -0.390 OA
HETATM   77  H   UNL     1       0.465   7.069  17.186  1.00  0.00     0.210 HD
ENDBRANCH  12  76
BRANCH  13  78
HETATM   78  O   UNL     1      -1.692   4.466  17.355  1.00  0.00    -0.388 OA
HETATM   79  H   UNL     1      -2.600   4.303  17.656  1.00  0.00     0.210 HD
ENDBRANCH  13  78
ENDBRANCH   7   8
ENDBRANCH   1   7
BRANCH   2  80
HETATM   80  C   UNL     1      -0.403  -0.120  13.092  1.00  0.00     0.203 C 
BRANCH  80  81
HETATM   81  O   UNL     1       0.849   0.285  12.570  1.00  0.00    -0.379 OA
BRANCH  81  82
HETATM   82  C   UNL     1       1.892  -0.546  13.028  1.00  0.00     0.281 C 
BRANCH  82  83
HETATM   83  C   UNL     1       2.740   0.238  13.982  1.00  0.00     0.313 C 
HETATM   84  O   UNL     1       3.590  -0.329  14.649  1.00  0.00    -0.260 OA
BRANCH  83  85
HETATM   85  O   UNL     1       2.573   1.569  14.113  1.00  0.00    -0.148 OA
HETATM   86 Na   UNL     1       1.371   2.612  12.878  1.00  0.00     0.000 Na
ENDBRANCH  83  85
ENDBRANCH  82  83
ENDBRANCH  81  82
ENDBRANCH  80  81
ENDBRANCH   2  80
BRANCH   3  87
HETATM   87  O   UNL     1      -4.080   2.210  14.742  1.00  0.00    -0.390 OA
HETATM   88  H   UNL     1      -3.889   2.855  14.013  1.00  0.00     0.210 HD
ENDBRANCH   3  87
BRANCH   4  89
HETATM   89  O   UNL     1      -2.943   0.853  17.077  1.00  0.00    -0.376 OA
BRANCH  89  90
HETATM   90  C   UNL     1      -3.598   0.302  18.284  1.00  0.00     0.194 C 
BRANCH  90  91
HETATM   91  C   UNL     1      -4.471   1.346  19.095  1.00  0.00     0.116 C 
BRANCH  91  92
HETATM   92  N   UNL     1      -3.636   2.414  19.700  1.00  0.00    -0.343 N 
HETATM   93  C   UNL     1      -3.994   3.682  20.005  1.00  0.00     0.111 A 
HETATM   94  C   UNL     1      -2.904   4.334  20.529  1.00  0.00     0.135 A 
HETATM   95  N   UNL     1      -1.854   3.495  20.543  1.00  0.00    -0.255 NA
HETATM   96  C   UNL     1      -2.325   2.341  20.029  1.00  0.00     0.209 A 
ENDBRANCH  91  92
BRANCH  91  97
HETATM   97  C   UNL     1      -5.703   1.848  18.240  1.00  0.00     0.053 C 
BRANCH  97  98
HETATM   98  C   UNL     1      -7.179   1.318  18.468  1.00  0.00     0.094 C 
BRANCH  98  99
HETATM   99  C   UNL     1      -7.576   0.014  17.677  1.00  0.00     0.051 C 
BRANCH  99 100
HETATM  100  C   UNL     1      -8.295  -1.116  18.485  1.00  0.00     0.094 C 
BRANCH 100 101
HETATM  101  N   UNL     1      -7.410  -2.273  18.720  1.00  0.00    -0.345 N 
HETATM  102  C   UNL     1      -6.430  -2.714  17.907  1.00  0.00     0.111 A 
HETATM  103  C   UNL     1      -5.872  -3.836  18.477  1.00  0.00     0.135 A 
HETATM  104  N   UNL     1      -6.506  -4.107  19.634  1.00  0.00    -0.255 NA
HETATM  105  C   UNL     1      -7.440  -3.141  19.751  1.00  0.00     0.209 A 
ENDBRANCH 100 101
BRANCH 100 106
HETATM  106  C   UNL     1      -9.611  -1.635  17.808  1.00  0.00     0.051 C 
BRANCH 106 107
HETATM  107  C   UNL     1     -10.860  -1.272  18.658  1.00  0.00     0.094 C 
BRANCH 107 108
HETATM  108  C   UNL     1     -10.610  -0.923  20.163  1.00  0.00     0.051 C 
BRANCH 108 109
HETATM  109  C   UNL     1     -11.484  -1.578  21.277  1.00  0.00     0.089 C 
HETATM  110  C   UNL     1     -12.784  -0.773  21.447  1.00  0.00     0.033 C 
BRANCH 109 111
HETATM  111  N   UNL     1     -11.829  -2.974  21.066  1.00  0.00    -0.334 N 
HETATM  112  C   UNL     1     -11.002  -4.112  21.089  1.00  0.00     0.082 A 
HETATM  113  C   UNL     1     -11.792  -5.153  20.835  1.00  0.00     0.150 A 
HETATM  114  N   UNL     1     -13.124  -4.725  20.635  1.00  0.00    -0.254 NA
HETATM  115  C   UNL     1     -13.118  -3.456  20.771  1.00  0.00     0.210 A 
ENDBRANCH 109 111
ENDBRANCH 108 109
ENDBRANCH 107 108
BRANCH 107 116
HETATM  116  N   UNL     1     -11.687  -0.266  17.991  1.00  0.00    -0.339 N 
HETATM  117  C   UNL     1     -11.305   1.053  17.676  1.00  0.00     0.209 A 
HETATM  118  N   UNL     1     -12.336   1.709  16.980  1.00  0.00    -0.254 NA
HETATM  119  C   UNL     1     -13.358   0.742  16.872  1.00  0.00     0.142 A 
HETATM  120  C   UNL     1     -12.992  -0.405  17.448  1.00  0.00     0.026 A 
HETATM  121  C   UNL     1     -13.864  -1.627  17.487  1.00  0.00     0.070 C 
ENDBRANCH 107 116
ENDBRANCH 106 107
ENDBRANCH 100 106
ENDBRANCH  99 100
ENDBRANCH  98  99
BRANCH  98 122
HETATM  122  N   UNL     1      -7.793   1.484  19.804  1.00  0.00    -0.339 N 
HETATM  123  C   UNL     1      -7.544   0.962  21.113  1.00  0.00     0.026 A 
HETATM  124  C   UNL     1      -8.369   1.517  22.002  1.00  0.00     0.142 A 
HETATM  125  C   UNL     1      -6.513  -0.006  21.558  1.00  0.00     0.070 C 
HETATM  126  N   UNL     1      -9.183   2.486  21.397  1.00  0.00    -0.254 NA
HETATM  127  C   UNL     1      -8.767   2.483  20.057  1.00  0.00     0.209 A 
ENDBRANCH  98 122
ENDBRANCH  97  98
ENDBRANCH  91  97
ENDBRANCH  90  91
ENDBRANCH  89  90
ENDBRANCH   4  89
BRANCH   5 128
HETATM  128  O   UNL     1      -2.386  -2.156  16.170  1.00  0.00    -0.348 OA
BRANCH 128 129
HETATM  129  C   UNL     1      -1.853  -3.296  15.460  1.00  0.00     0.187 C 
HETATM  130  C   UNL     1      -1.932  -4.615  16.280  1.00  0.00     0.180 C 
HETATM  131  O   UNL     1      -1.180  -5.637  15.630  1.00  0.00    -0.348 OA
HETATM  132  C   UNL     1      -1.367  -4.436  17.695  1.00  0.00     0.203 C 
HETATM  133  C   UNL     1      -1.662  -5.946  14.327  1.00  0.00     0.292 C 
HETATM  134  O   UNL     1      -2.846  -6.739  14.419  1.00  0.00    -0.348 OA
HETATM  135  C   UNL     1      -1.818  -4.688  13.425  1.00  0.00     0.204 C 
HETATM  136  C   UNL     1      -2.615  -8.100  14.035  1.00  0.00     0.187 C 
HETATM  137  C   UNL     1      -3.288  -9.102  15.039  1.00  0.00     0.176 C 
HETATM  138  C   UNL     1      -3.177  -8.383  12.631  1.00  0.00     0.180 C 
HETATM  139  O   UNL     1      -3.476 -10.428  14.518  1.00  0.00    -0.378 OA
HETATM  140  C   UNL     1      -2.516  -9.152  16.377  1.00  0.00     0.203 C 
HETATM  141  C   UNL     1      -2.576 -10.738  13.476  1.00  0.00     0.202 C 
HETATM  142  C   UNL     1      -2.826  -9.851  12.228  1.00  0.00     0.173 C 
HETATM  143  O   UNL     1      -2.970 -10.160  17.264  1.00  0.00    -0.379 OA
HETATM  144  C   UNL     1      -4.333 -10.008  17.599  1.00  0.00     0.280 C 
HETATM  145  C   UNL     1      -4.591 -10.703  18.901  1.00  0.00     0.308 C 
HETATM  146  O   UNL     1      -4.323 -11.887  19.025  1.00  0.00    -0.261 OA
HETATM  147  O   UNL     1      -5.132 -10.032  19.934  1.00  0.00    -0.158 OA
HETATM  148 Na   UNL     1      -5.725  -8.120  19.711  1.00  0.00    -0.020 Na
HETATM  149 Na   UNL     1      -5.275  -5.785  20.921  1.00  0.00     0.080 Na
HETATM  150  O   UNL     1      -3.694  -7.037  20.965  1.00  0.00    -0.180 OA
HETATM  151  C   UNL     1      -2.648  -6.838  20.141  1.00  0.00     0.302 C 
HETATM  152  C   UNL     1      -2.656  -5.669  19.203  1.00  0.00     0.280 C 
HETATM  153  O   UNL     1      -1.701  -7.609  20.175  1.00  0.00    -0.261 OA
HETATM  154  O   UNL     1      -1.462  -5.639  18.440  1.00  0.00    -0.379 OA
HETATM  155  C   UNL     1      -2.570  -3.534  14.123  1.00  0.00     0.183 C 
BRANCH 142 156
HETATM  156  O   UNL     1      -3.835 -10.419  11.329  1.00  0.00    -0.391 OA
HETATM  157  H   UNL     1      -4.364  -9.703  10.942  1.00  0.00     0.210 HD
ENDBRANCH 142 156
BRANCH 138 158
HETATM  158  O   UNL     1      -4.561  -8.112  12.595  1.00  0.00    -0.390 OA
HETATM  159  H   UNL     1      -4.949  -8.485  11.764  1.00  0.00     0.210 HD
ENDBRANCH 138 158
BRANCH 135 160
HETATM  160  O   UNL     1      -2.398  -5.030  12.126  1.00  0.00    -0.388 OA
HETATM  161  H   UNL     1      -2.323  -4.270  11.528  1.00  0.00     0.210 HD
ENDBRANCH 135 160
BRANCH 155 162
HETATM  162  O   UNL     1      -3.920  -3.869  14.321  1.00  0.00    -0.390 OA
HETATM  163  H   UNL     1      -3.951  -4.847  14.478  1.00  0.00     0.210 HD
ENDBRANCH 155 162
ENDBRANCH 128 129
ENDBRANCH   5 128
TORSDOF 61
ENDMDL
MODEL 3
REMARK VINA RESULT:      -7.5      4.206     17.094
REMARK WARNING: 32 MAX_TORS EXCEEDED!!!
REMARK  61 active torsions:
REMARK  status: ('A' for Active; 'I' for Inactive)
REMARK    1  A    between atoms: C_1  and  O_30 
REMARK    2  A    between atoms: C_2  and  C_6 
REMARK    3  A    between atoms: C_3  and  O_9 
REMARK    4  A    between atoms: C_4  and  O_11 
REMARK    5  A    between atoms: C_5  and  O_12 
REMARK    6  A    between atoms: C_6  and  O_7 
REMARK    7  A    between atoms: O_7  and  C_147 
REMARK    8  A    between atoms: O_11  and  C_107 
REMARK    9  A    between atoms: O_12  and  C_20 
REMARK   10  A    between atoms: O_14  and  C_18 
REMARK   11  A    between atoms: O_21  and  C_24 
REMARK   12  A    between atoms: O_26  and  C_29 
REMARK   13  A    between atoms: C_28  and  C_34 
REMARK   14  A    between atoms: O_30  and  C_33 
REMARK   15  A    between atoms: C_31  and  O_53 
REMARK   16  A    between atoms: O_32  and  C_35 
REMARK   17  A    between atoms: C_34  and  O_59 
REMARK   18  A    between atoms: O_37  and  C_41 
REMARK   19  A    between atoms: O_43  and  C_46 
REMARK   20  A    between atoms: O_48  and  C_52 
REMARK   21  A    between atoms: C_50  and  C_57 
REMARK   22  A    between atoms: O_51  and  C_57 
REMARK   23  A    between atoms: O_51  and  C_60 
REMARK   24  A    between atoms: O_53  and  C_56 
REMARK   25  A    between atoms: O_55  and  C_58 
REMARK   26  A    between atoms: O_55  and  C_61 
REMARK   27  A    between atoms: O_59  and  C_142 
REMARK   28  A    between atoms: C_60  and  C_137 
REMARK   29  A    between atoms: C_61  and  C_62 
REMARK   30  A    between atoms: C_62  and  C_63 
REMARK   31  A    between atoms: C_62  and  N_76 
REMARK   32  A    between atoms: C_63  and  C_64 
REMARK   33  A    between atoms: C_64  and  C_65 
REMARK   34  A    between atoms: C_64  and  N_90 
REMARK   35  A    between atoms: C_65  and  C_66 
REMARK   36  A    between atoms: C_66  and  C_67 
REMARK   37  A    between atoms: C_66  and  N_80 
REMARK   38  A    between atoms: C_67  and  C_68 
REMARK   39  A    between atoms: C_68  and  C_69 
REMARK   40  A    between atoms: C_68  and  N_95 
REMARK   41  A    between atoms: C_69  and  C_70 
REMARK   42  A    between atoms: C_70  and  N_85 
REMARK   43  A    between atoms: N_102  and  C_108 
REMARK   44  A    between atoms: C_107  and  C_108 
REMARK   45  A    between atoms: C_108  and  C_115 
REMARK   46  A    between atoms: N_111  and  C_117 
REMARK   47  A    between atoms: C_113  and  C_117 
REMARK   48  A    between atoms: C_113  and  C_119 
REMARK   49  A    between atoms: N_114  and  C_124 
REMARK   50  A    between atoms: C_115  and  C_119 
REMARK   51  A    between atoms: C_117  and  C_121 
REMARK   52  A    between atoms: N_118  and  C_119 
REMARK   53  A    between atoms: C_121  and  C_126 
REMARK   54  A    between atoms: C_124  and  C_125 
REMARK   55  A    between atoms: C_125  and  C_126 
REMARK   56  A    between atoms: C_126  and  N_129 
REMARK   57  A    between atoms: C_137  and  O_139 
REMARK   58  A    between atoms: C_142  and  C_144 
REMARK   59  A    between atoms: O_143  and  C_144 
REMARK   60  A    between atoms: C_147  and  C_149 
REMARK   61  A    between atoms: O_148  and  C_149 
ROOT
HETATM    1  C   UNL     1      -0.093   0.948  13.191  1.00  0.00     0.187 C 
HETATM    2  C   UNL     1       0.832   0.220  14.230  1.00  0.00     0.180 C 
HETATM    3  C   UNL     1      -1.051  -0.033  12.473  1.00  0.00     0.183 C 
HETATM    4  C   UNL     1      -1.726  -1.001  13.493  1.00  0.00     0.208 C 
HETATM    5  C   UNL     1      -0.525  -1.709  14.167  1.00  0.00     0.292 C 
HETATM    6  O   UNL     1       0.149  -0.780  15.006  1.00  0.00    -0.348 OA
ENDROOT
BRANCH   1   7
HETATM    7  O   UNL     1      -0.870   1.933  13.850  1.00  0.00    -0.348 OA
BRANCH   7   8
HETATM    8  C   UNL     1      -0.542   3.272  13.471  1.00  0.00     0.292 C 
HETATM    9  O   UNL     1       0.672   3.249  12.748  1.00  0.00    -0.348 OA
HETATM   10  C   UNL     1       1.066   4.533  12.245  1.00  0.00     0.180 C 
HETATM   11  C   UNL     1       0.631   5.749  13.129  1.00  0.00     0.187 C 
HETATM   12  C   UNL     1       0.608   5.294  14.587  1.00  0.00     0.183 C 
HETATM   13  C   UNL     1      -0.460   4.179  14.739  1.00  0.00     0.204 C 
BRANCH  10  14
HETATM   14  C   UNL     1       0.632   4.712  10.785  1.00  0.00     0.203 C 
BRANCH  14  15
HETATM   15  O   UNL     1       1.712   4.395   9.935  1.00  0.00    -0.379 OA
BRANCH  15  16
HETATM   16  C   UNL     1       2.680   5.419   9.998  1.00  0.00     0.281 C 
BRANCH  16  17
HETATM   17  C   UNL     1       3.838   4.931  10.810  1.00  0.00     0.313 C 
HETATM   18  O   UNL     1       4.091   3.739  10.876  1.00  0.00    -0.260 OA
BRANCH  17  19
HETATM   19  O   UNL     1       4.609   5.814  11.475  1.00  0.00    -0.148 OA
HETATM   20 Na   UNL     1       3.755   7.383  12.408  1.00  0.00     0.000 Na
ENDBRANCH  17  19
ENDBRANCH  16  17
ENDBRANCH  15  16
ENDBRANCH  14  15
ENDBRANCH  10  14
BRANCH  11  21
HETATM   21  O   UNL     1       1.571   6.805  12.996  1.00  0.00    -0.348 OA
BRANCH  21  22
HETATM   22  C   UNL     1       1.047   8.098  13.239  1.00  0.00     0.292 C 
HETATM   23  O   UNL     1      -0.315   7.942  13.630  1.00  0.00    -0.351 OA
HETATM   24  C   UNL     1      -1.108   9.135  13.623  1.00  0.00     0.151 C 
HETATM   25  C   UNL     1      -0.274  10.434  13.521  1.00  0.00     0.068 C 
HETATM   26  C   UNL     1       0.659  10.409  12.285  1.00  0.00     0.154 C 
HETATM   27  C   UNL     1       1.175   8.973  11.957  1.00  0.00     0.205 C 
BRANCH  24  28
HETATM   28  C   UNL     1      -1.943   9.159  14.911  1.00  0.00     0.200 C 
BRANCH  28  29
HETATM   29  O   UNL     1      -3.110   8.385  14.724  1.00  0.00    -0.379 OA
BRANCH  29  30
HETATM   30  C   UNL     1      -4.146   8.866  15.556  1.00  0.00     0.281 C 
BRANCH  30  31
HETATM   31  C   UNL     1      -4.142   8.085  16.835  1.00  0.00     0.313 C 
HETATM   32  O   UNL     1      -4.384   8.638  17.896  1.00  0.00    -0.260 OA
BRANCH  31  33
HETATM   33  O   UNL     1      -3.872   6.765  16.820  1.00  0.00    -0.148 OA
HETATM   34 Na   UNL     1      -3.265   5.825  18.494  1.00  0.00     0.000 Na
ENDBRANCH  31  33
ENDBRANCH  30  31
ENDBRANCH  29  30
ENDBRANCH  28  29
ENDBRANCH  24  28
BRANCH  26  35
HETATM   35  O   UNL     1       0.086  11.024  11.155  1.00  0.00    -0.393 OA
HETATM   36  H   UNL     1       0.211  10.421  10.376  1.00  0.00     0.210 HD
ENDBRANCH  26  35
BRANCH  27  37
HETATM   37  O   UNL     1       0.430   8.420  10.797  1.00  0.00    -0.376 OA
BRANCH  37  38
HETATM   38  C   UNL     1       1.231   8.096   9.599  1.00  0.00     0.194 C 
BRANCH  38  39
HETATM   39  C   UNL     1       0.430   8.275   8.273  1.00  0.00     0.116 C 
BRANCH  39  40
HETATM   40  C   UNL     1       1.254   7.601   7.099  1.00  0.00     0.053 C 
BRANCH  40  41
HETATM   41  C   UNL     1       0.528   6.953   5.865  1.00  0.00     0.094 C 
BRANCH  41  42
HETATM   42  C   UNL     1       1.489   7.047   4.603  1.00  0.00     0.051 C 
BRANCH  42  43
HETATM   43  C   UNL     1       1.060   6.687   3.136  1.00  0.00     0.094 C 
BRANCH  43  44
HETATM   44  C   UNL     1       0.263   7.857   2.476  1.00  0.00     0.051 C 
BRANCH  44  45
HETATM   45  C   UNL     1      -0.856   7.343   1.536  1.00  0.00     0.094 C 
BRANCH  45  46
HETATM   46  C   UNL     1      -0.665   7.624   0.009  1.00  0.00     0.051 C 
BRANCH  46  47
HETATM   47  C   UNL     1      -1.885   7.596  -0.960  1.00  0.00     0.089 C 
HETATM   48  C   UNL     1      -1.610   6.611  -2.107  1.00  0.00     0.033 C 
BRANCH  47  49
HETATM   49  N   UNL     1      -3.147   7.232  -0.334  1.00  0.00    -0.334 N 
HETATM   50  C   UNL     1      -3.812   6.001  -0.487  1.00  0.00     0.210 A 
HETATM   51  N   UNL     1      -4.868   5.947   0.230  1.00  0.00    -0.254 NA
HETATM   52  C   UNL     1      -4.946   7.177   0.923  1.00  0.00     0.150 A 
HETATM   53  C   UNL     1      -3.915   7.954   0.601  1.00  0.00     0.082 A 
ENDBRANCH  47  49
ENDBRANCH  46  47
ENDBRANCH  45  46
BRANCH  45  54
HETATM   54  N   UNL     1      -1.075   5.895   1.797  1.00  0.00    -0.339 N 
HETATM   55  C   UNL     1      -0.416   4.877   1.194  1.00  0.00     0.209 A 
HETATM   56  N   UNL     1      -0.793   3.668   1.657  1.00  0.00    -0.254 NA
HETATM   57  C   UNL     1      -1.722   3.930   2.590  1.00  0.00     0.142 A 
HETATM   58  C   UNL     1      -1.899   5.296   2.685  1.00  0.00     0.026 A 
HETATM   59  C   UNL     1      -2.856   5.946   3.634  1.00  0.00     0.070 C 
ENDBRANCH  45  54
ENDBRANCH  44  45
ENDBRANCH  43  44
BRANCH  43  60
HETATM   60  N   UNL     1       2.227   6.412   2.278  1.00  0.00    -0.345 N 
HETATM   61  C   UNL     1       2.726   7.209   1.311  1.00  0.00     0.209 A 
HETATM   62  N   UNL     1       3.832   6.690   0.743  1.00  0.00    -0.255 NA
HETATM   63  C   UNL     1       4.041   5.527   1.392  1.00  0.00     0.135 A 
HETATM   64  C   UNL     1       3.063   5.358   2.346  1.00  0.00     0.111 A 
ENDBRANCH  43  60
ENDBRANCH  42  43
ENDBRANCH  41  42
BRANCH  41  65
HETATM   65  N   UNL     1      -0.134   5.660   6.144  1.00  0.00    -0.339 N 
HETATM   66  C   UNL     1       0.256   4.446   5.542  1.00  0.00     0.209 A 
HETATM   67  N   UNL     1      -0.606   3.392   5.875  1.00  0.00    -0.254 NA
HETATM   68  C   UNL     1      -1.632   4.010   6.604  1.00  0.00     0.142 A 
HETATM   69  C   UNL     1      -1.407   5.320   6.734  1.00  0.00     0.026 A 
HETATM   70  C   UNL     1      -2.468   6.212   7.332  1.00  0.00     0.070 C 
ENDBRANCH  41  65
ENDBRANCH  40  41
ENDBRANCH  39  40
BRANCH  39  71
HETATM   71  N   UNL     1      -0.031   9.673   8.050  1.00  0.00    -0.343 N 
HETATM   72  C   UNL     1      -1.284  10.183   8.124  1.00  0.00     0.111 A 
HETATM   73  C   UNL     1      -1.238  11.520   7.803  1.00  0.00     0.135 A 
HETATM   74  N   UNL     1       0.027  11.856   7.502  1.00  0.00    -0.255 NA
HETATM   75  C   UNL     1       0.730  10.717   7.647  1.00  0.00     0.209 A 
ENDBRANCH  39  71
ENDBRANCH  38  39
ENDBRANCH  37  38
ENDBRANCH  27  37
ENDBRANCH  21  22
ENDBRANCH  11  21
BRANCH  12  76
HETATM   76  O   UNL     1       1.898   4.889  14.996  1.00  0.00    -0.390 OA
HETATM   77  H   UNL     1       2.573   5.524  14.646  1.00  0.00     0.210 HD
ENDBRANCH  12  76
BRANCH  13  78
HETATM   78  O   UNL     1      -0.236   3.430  15.969  1.00  0.00    -0.388 OA
HETATM   79  H   UNL     1       0.687   3.532  16.246  1.00  0.00     0.210 HD
ENDBRANCH  13  78
ENDBRANCH   7   8
ENDBRANCH   1   7
BRANCH   2  80
HETATM   80  C   UNL     1       2.141  -0.319  13.596  1.00  0.00     0.203 C 
BRANCH  80  81
HETATM   81  O   UNL     1       3.253   0.441  14.031  1.00  0.00    -0.379 OA
BRANCH  81  82
HETATM   82  C   UNL     1       3.250   0.606  15.432  1.00  0.00     0.281 C 
BRANCH  82  83
HETATM   83  C   UNL     1       3.187   2.072  15.736  1.00  0.00     0.313 C 
HETATM   84  O   UNL     1       2.577   2.463  16.719  1.00  0.00    -0.260 OA
BRANCH  83  85
HETATM   85  O   UNL     1       3.797   2.966  14.934  1.00  0.00    -0.148 OA
HETATM   86 Na   UNL     1       4.009   2.643  12.957  1.00  0.00     0.000 Na
ENDBRANCH  83  85
ENDBRANCH  82  83
ENDBRANCH  81  82
ENDBRANCH  80  81
ENDBRANCH   2  80
BRANCH   3  87
HETATM   87  O   UNL     1      -2.002   0.678  11.723  1.00  0.00    -0.390 OA
HETATM   88  H   UNL     1      -2.336   1.411  12.302  1.00  0.00     0.210 HD
ENDBRANCH   3  87
BRANCH   4  89
HETATM   89  O   UNL     1      -2.610  -0.248  14.435  1.00  0.00    -0.376 OA
BRANCH  89  90
HETATM   90  C   UNL     1      -3.253  -1.048  15.501  1.00  0.00     0.194 C 
BRANCH  90  91
HETATM   91  C   UNL     1      -3.387  -0.304  16.893  1.00  0.00     0.116 C 
BRANCH  91  92
HETATM   92  N   UNL     1      -4.641  -0.670  17.598  1.00  0.00    -0.343 N 
HETATM   93  C   UNL     1      -5.824  -0.015  17.593  1.00  0.00     0.111 A 
HETATM   94  C   UNL     1      -6.707  -0.693  18.399  1.00  0.00     0.135 A 
HETATM   95  N   UNL     1      -6.089  -1.763  18.927  1.00  0.00    -0.255 NA
HETATM   96  C   UNL     1      -4.837  -1.721  18.430  1.00  0.00     0.209 A 
ENDBRANCH  91  92
BRANCH  91  97
HETATM   97  C   UNL     1      -2.062  -0.442  17.746  1.00  0.00     0.053 C 
BRANCH  97  98
HETATM   98  C   UNL     1      -1.867   0.265  19.151  1.00  0.00     0.094 C 
BRANCH  98  99
HETATM   99  C   UNL     1      -1.262  -0.631  20.297  1.00  0.00     0.051 C 
BRANCH  99 100
HETATM  100  C   UNL     1      -0.717  -2.039  19.887  1.00  0.00     0.094 C 
BRANCH 100 101
HETATM  101  N   UNL     1      -1.760  -3.079  19.977  1.00  0.00    -0.345 N 
HETATM  102  C   UNL     1      -2.568  -3.322  21.028  1.00  0.00     0.111 A 
HETATM  103  C   UNL     1      -3.368  -4.397  20.716  1.00  0.00     0.135 A 
HETATM  104  N   UNL     1      -3.056  -4.838  19.482  1.00  0.00    -0.255 NA
HETATM  105  C   UNL     1      -2.070  -4.020  19.061  1.00  0.00     0.209 A 
ENDBRANCH 100 101
BRANCH 100 106
HETATM  106  C   UNL     1       0.517  -2.508  20.734  1.00  0.00     0.051 C 
BRANCH 106 107
HETATM  107  C   UNL     1       1.852  -2.151  20.022  1.00  0.00     0.094 C 
BRANCH 107 108
HETATM  108  C   UNL     1       2.820  -1.186  20.783  1.00  0.00     0.051 C 
BRANCH 108 109
HETATM  109  C   UNL     1       4.251  -0.910  20.229  1.00  0.00     0.089 C 
HETATM  110  C   UNL     1       4.168   0.109  19.079  1.00  0.00     0.033 C 
BRANCH 109 111
HETATM  111  N   UNL     1       5.220  -0.431  21.201  1.00  0.00    -0.334 N 
HETATM  112  C   UNL     1       6.077   0.683  21.134  1.00  0.00     0.082 A 
HETATM  113  C   UNL     1       6.769   0.691  22.272  1.00  0.00     0.150 A 
HETATM  114  N   UNL     1       6.392  -0.401  23.087  1.00  0.00    -0.254 NA
HETATM  115  C   UNL     1       5.495  -1.039  22.441  1.00  0.00     0.210 A 
ENDBRANCH 109 111
ENDBRANCH 108 109
ENDBRANCH 107 108
BRANCH 107 116
HETATM  116  N   UNL     1       2.537  -3.350  19.539  1.00  0.00    -0.339 N 
HETATM  117  C   UNL     1       2.807  -4.515  20.286  1.00  0.00     0.209 A 
HETATM  118  N   UNL     1       3.425  -5.484  19.476  1.00  0.00    -0.254 NA
HETATM  119  C   UNL     1       3.514  -4.875  18.205  1.00  0.00     0.142 A 
HETATM  120  C   UNL     1       3.000  -3.644  18.229  1.00  0.00     0.026 A 
HETATM  121  C   UNL     1       2.940  -2.748  17.025  1.00  0.00     0.070 C 
ENDBRANCH 107 116
ENDBRANCH 106 107
ENDBRANCH 100 106
ENDBRANCH  99 100
ENDBRANCH  98  99
BRANCH  98 122
HETATM  122  N   UNL     1      -1.498   1.698  19.179  1.00  0.00    -0.339 N 
HETATM  123  C   UNL     1      -0.311   2.440  19.476  1.00  0.00     0.026 A 
HETATM  124  C   UNL     1      -0.509   3.742  19.263  1.00  0.00     0.142 A 
HETATM  125  C   UNL     1       1.021   1.950  19.905  1.00  0.00     0.070 C 
HETATM  126  N   UNL     1      -1.794   3.979  18.753  1.00  0.00    -0.254 NA
HETATM  127  C   UNL     1      -2.359   2.698  18.659  1.00  0.00     0.209 A 
ENDBRANCH  98 122
ENDBRANCH  97  98
ENDBRANCH  91  97
ENDBRANCH  90  91
ENDBRANCH  89  90
ENDBRANCH   4  89
BRANCH   5 128
HETATM  128  O   UNL     1      -0.898  -2.907  14.870  1.00  0.00    -0.348 OA
BRANCH 128 129
HETATM  129  C   UNL     1      -0.841  -4.059  14.002  1.00  0.00     0.187 C 
HETATM  130  C   UNL     1      -0.552  -5.383  14.764  1.00  0.00     0.180 C 
HETATM  131  O   UNL     1      -0.271  -6.428  13.836  1.00  0.00    -0.348 OA
HETATM  132  C   UNL     1       0.653  -5.243  15.704  1.00  0.00     0.203 C 
HETATM  133  C   UNL     1      -1.353  -6.701  12.954  1.00  0.00     0.292 C 
HETATM  134  O   UNL     1      -2.363  -7.446  13.635  1.00  0.00    -0.348 OA
HETATM  135  C   UNL     1      -1.888  -5.428  12.237  1.00  0.00     0.204 C 
HETATM  136  C   UNL     1      -2.413  -8.811  13.202  1.00  0.00     0.187 C 
HETATM  137  C   UNL     1      -2.532  -9.795  14.419  1.00  0.00     0.176 C 
HETATM  138  C   UNL     1      -3.614  -9.054  12.272  1.00  0.00     0.180 C 
HETATM  139  O   UNL     1      -3.011 -11.107  14.076  1.00  0.00    -0.378 OA
HETATM  140  C   UNL     1      -1.197  -9.893  15.189  1.00  0.00     0.203 C 
HETATM  141  C   UNL     1      -2.769 -11.442  12.727  1.00  0.00     0.202 C 
HETATM  142  C   UNL     1      -3.574 -10.531  11.763  1.00  0.00     0.173 C 
HETATM  143  O   UNL     1      -1.187 -10.892  16.195  1.00  0.00    -0.379 OA
HETATM  144  C   UNL     1      -2.190 -10.687  17.167  1.00  0.00     0.280 C 
HETATM  145  C   UNL     1      -1.789 -11.386  18.430  1.00  0.00     0.308 C 
HETATM  146  O   UNL     1      -1.544 -12.582  18.416  1.00  0.00    -0.261 OA
HETATM  147  O   UNL     1      -1.711 -10.705  19.589  1.00  0.00    -0.158 OA
HETATM  148 Na   UNL     1      -2.256  -8.768  19.672  1.00  0.00    -0.020 Na
HETATM  149 Na   UNL     1      -1.163  -6.468  20.468  1.00  0.00     0.080 Na
HETATM  150  O   UNL     1       0.173  -7.784  19.727  1.00  0.00    -0.180 OA
HETATM  151  C   UNL     1       0.672  -7.619  18.487  1.00  0.00     0.302 C 
HETATM  152  C   UNL     1       0.243  -6.440  17.667  1.00  0.00     0.280 C 
HETATM  153  O   UNL     1       1.476  -8.429  18.050  1.00  0.00    -0.261 OA
HETATM  154  O   UNL     1       0.894  -6.450  16.408  1.00  0.00    -0.379 OA
HETATM  155  C   UNL     1      -2.141  -4.252  13.206  1.00  0.00     0.183 C 
BRANCH 142 156
HETATM  156  O   UNL     1      -4.921 -11.046  11.497  1.00  0.00    -0.391 OA
HETATM  157  H   UNL     1      -4.859 -11.948  11.146  1.00  0.00     0.210 HD
ENDBRANCH 142 156
BRANCH 138 158
HETATM  158  O   UNL     1      -4.817  -8.726  12.932  1.00  0.00    -0.390 OA
HETATM  159  H   UNL     1      -5.441  -8.303  12.290  1.00  0.00     0.210 HD
ENDBRANCH 138 158
BRANCH 135 160
HETATM  160  O   UNL     1      -3.056  -5.731  11.409  1.00  0.00    -0.388 OA
HETATM  161  H   UNL     1      -3.045  -6.670  11.167  1.00  0.00     0.210 HD
ENDBRANCH 135 160
BRANCH 155 162
HETATM  162  O   UNL     1      -3.222  -4.533  14.058  1.00  0.00    -0.390 OA
HETATM  163  H   UNL     1      -3.714  -5.293  13.652  1.00  0.00     0.210 HD
ENDBRANCH 155 162
ENDBRANCH 128 129
ENDBRANCH   5 128
TORSDOF 61
ENDMDL
MODEL 4
REMARK VINA RESULT:      -7.4      5.257     10.391
REMARK WARNING: 32 MAX_TORS EXCEEDED!!!
REMARK  61 active torsions:
REMARK  status: ('A' for Active; 'I' for Inactive)
REMARK    1  A    between atoms: C_1  and  O_30 
REMARK    2  A    between atoms: C_2  and  C_6 
REMARK    3  A    between atoms: C_3  and  O_9 
REMARK    4  A    between atoms: C_4  and  O_11 
REMARK    5  A    between atoms: C_5  and  O_12 
REMARK    6  A    between atoms: C_6  and  O_7 
REMARK    7  A    between atoms: O_7  and  C_147 
REMARK    8  A    between atoms: O_11  and  C_107 
REMARK    9  A    between atoms: O_12  and  C_20 
REMARK   10  A    between atoms: O_14  and  C_18 
REMARK   11  A    between atoms: O_21  and  C_24 
REMARK   12  A    between atoms: O_26  and  C_29 
REMARK   13  A    between atoms: C_28  and  C_34 
REMARK   14  A    between atoms: O_30  and  C_33 
REMARK   15  A    between atoms: C_31  and  O_53 
REMARK   16  A    between atoms: O_32  and  C_35 
REMARK   17  A    between atoms: C_34  and  O_59 
REMARK   18  A    between atoms: O_37  and  C_41 
REMARK   19  A    between atoms: O_43  and  C_46 
REMARK   20  A    between atoms: O_48  and  C_52 
REMARK   21  A    between atoms: C_50  and  C_57 
REMARK   22  A    between atoms: O_51  and  C_57 
REMARK   23  A    between atoms: O_51  and  C_60 
REMARK   24  A    between atoms: O_53  and  C_56 
REMARK   25  A    between atoms: O_55  and  C_58 
REMARK   26  A    between atoms: O_55  and  C_61 
REMARK   27  A    between atoms: O_59  and  C_142 
REMARK   28  A    between atoms: C_60  and  C_137 
REMARK   29  A    between atoms: C_61  and  C_62 
REMARK   30  A    between atoms: C_62  and  C_63 
REMARK   31  A    between atoms: C_62  and  N_76 
REMARK   32  A    between atoms: C_63  and  C_64 
REMARK   33  A    between atoms: C_64  and  C_65 
REMARK   34  A    between atoms: C_64  and  N_90 
REMARK   35  A    between atoms: C_65  and  C_66 
REMARK   36  A    between atoms: C_66  and  C_67 
REMARK   37  A    between atoms: C_66  and  N_80 
REMARK   38  A    between atoms: C_67  and  C_68 
REMARK   39  A    between atoms: C_68  and  C_69 
REMARK   40  A    between atoms: C_68  and  N_95 
REMARK   41  A    between atoms: C_69  and  C_70 
REMARK   42  A    between atoms: C_70  and  N_85 
REMARK   43  A    between atoms: N_102  and  C_108 
REMARK   44  A    between atoms: C_107  and  C_108 
REMARK   45  A    between atoms: C_108  and  C_115 
REMARK   46  A    between atoms: N_111  and  C_117 
REMARK   47  A    between atoms: C_113  and  C_117 
REMARK   48  A    between atoms: C_113  and  C_119 
REMARK   49  A    between atoms: N_114  and  C_124 
REMARK   50  A    between atoms: C_115  and  C_119 
REMARK   51  A    between atoms: C_117  and  C_121 
REMARK   52  A    between atoms: N_118  and  C_119 
REMARK   53  A    between atoms: C_121  and  C_126 
REMARK   54  A    between atoms: C_124  and  C_125 
REMARK   55  A    between atoms: C_125  and  C_126 
REMARK   56  A    between atoms: C_126  and  N_129 
REMARK   57  A    between atoms: C_137  and  O_139 
REMARK   58  A    between atoms: C_142  and  C_144 
REMARK   59  A    between atoms: O_143  and  C_144 
REMARK   60  A    between atoms: C_147  and  C_149 
REMARK   61  A    between atoms: O_148  and  C_149 
ROOT
HETATM    1  C   UNL     1       1.104   2.902  13.610  1.00  0.00     0.187 C 
HETATM    2  C   UNL     1       1.111   3.371  12.111  1.00  0.00     0.180 C 
HETATM    3  C   UNL     1       0.708   4.043  14.578  1.00  0.00     0.183 C 
HETATM    4  C   UNL     1      -0.543   4.812  14.052  1.00  0.00     0.208 C 
HETATM    5  C   UNL     1      -0.093   5.324  12.661  1.00  0.00     0.292 C 
HETATM    6  O   UNL     1       0.001   4.221  11.770  1.00  0.00    -0.348 OA
ENDROOT
BRANCH   1   7
HETATM    7  O   UNL     1       0.185   1.836  13.773  1.00  0.00    -0.348 OA
BRANCH   7   8
HETATM    8  C   UNL     1       0.684   0.766  14.580  1.00  0.00     0.292 C 
HETATM    9  O   UNL     1       1.994   1.093  14.998  1.00  0.00    -0.348 OA
HETATM   10  C   UNL     1       2.574   0.124  15.882  1.00  0.00     0.180 C 
HETATM   11  C   UNL     1       2.105  -1.350  15.644  1.00  0.00     0.187 C 
HETATM   12  C   UNL     1       1.804  -1.519  14.156  1.00  0.00     0.183 C 
HETATM   13  C   UNL     1       0.634  -0.573  13.779  1.00  0.00     0.204 C 
BRANCH  10  14
HETATM   14  C   UNL     1       2.403   0.542  17.348  1.00  0.00     0.203 C 
BRANCH  14  15
HETATM   15  O   UNL     1       2.647   1.926  17.470  1.00  0.00    -0.379 OA
BRANCH  15  16
HETATM   16  C   UNL     1       2.807   2.260  18.831  1.00  0.00     0.281 C 
BRANCH  16  17
HETATM   17  C   UNL     1       1.701   3.187  19.228  1.00  0.00     0.313 C 
HETATM   18  O   UNL     1       1.026   2.957  20.219  1.00  0.00    -0.260 OA
BRANCH  17  19
HETATM   19  O   UNL     1       1.448   4.283  18.488  1.00  0.00    -0.148 OA
HETATM   20 Na   UNL     1       0.045   5.597  19.093  1.00  0.00     0.000 Na
ENDBRANCH  17  19
ENDBRANCH  16  17
ENDBRANCH  15  16
ENDBRANCH  14  15
ENDBRANCH  10  14
BRANCH  11  21
HETATM   21  O   UNL     1       3.140  -2.252  16.005  1.00  0.00    -0.348 OA
BRANCH  21  22
HETATM   22  C   UNL     1       2.926  -2.943  17.222  1.00  0.00     0.292 C 
HETATM   23  O   UNL     1       4.032  -3.820  17.418  1.00  0.00    -0.351 OA
HETATM   24  C   UNL     1       3.862  -4.825  18.425  1.00  0.00     0.151 C 
HETATM   25  C   UNL     1       2.651  -4.576  19.352  1.00  0.00     0.068 C 
HETATM   26  C   UNL     1       1.342  -4.412  18.540  1.00  0.00     0.154 C 
HETATM   27  C   UNL     1       1.581  -3.727  17.157  1.00  0.00     0.205 C 
BRANCH  24  28
HETATM   28  C   UNL     1       5.148  -4.883  19.261  1.00  0.00     0.200 C 
BRANCH  28  29
HETATM   29  O   UNL     1       5.930  -3.736  18.994  1.00  0.00    -0.379 OA
BRANCH  29  30
HETATM   30  C   UNL     1       7.101  -3.757  19.786  1.00  0.00     0.281 C 
BRANCH  30  31
HETATM   31  C   UNL     1       7.512  -2.345  20.076  1.00  0.00     0.313 C 
HETATM   32  O   UNL     1       8.524  -2.119  20.722  1.00  0.00    -0.260 OA
BRANCH  31  33
HETATM   33  O   UNL     1       6.768  -1.317  19.624  1.00  0.00    -0.148 OA
HETATM   34 Na   UNL     1       4.842  -1.595  19.111  1.00  0.00     0.000 Na
ENDBRANCH  31  33
ENDBRANCH  30  31
ENDBRANCH  29  30
ENDBRANCH  28  29
ENDBRANCH  24  28
BRANCH  26  35
HETATM   35  O   UNL     1       0.629  -5.619  18.403  1.00  0.00    -0.393 OA
HETATM   36  H   UNL     1       1.256  -6.315  18.076  1.00  0.00     0.210 HD
ENDBRANCH  26  35
BRANCH  27  37
HETATM   37  O   UNL     1       1.550  -4.745  16.077  1.00  0.00    -0.376 OA
BRANCH  37  38
HETATM   38  C   UNL     1       0.449  -4.628  15.099  1.00  0.00     0.194 C 
BRANCH  38  39
HETATM   39  C   UNL     1      -0.132  -6.013  14.680  1.00  0.00     0.116 C 
BRANCH  39  40
HETATM   40  C   UNL     1      -0.561  -5.932  13.156  1.00  0.00     0.053 C 
BRANCH  40  41
HETATM   41  C   UNL     1      -0.067  -7.001  12.115  1.00  0.00     0.094 C 
BRANCH  41  42
HETATM   42  C   UNL     1      -0.436  -8.448  12.659  1.00  0.00     0.051 C 
BRANCH  42  43
HETATM   43  C   UNL     1      -0.785  -9.674  11.743  1.00  0.00     0.094 C 
BRANCH  43  44
HETATM   44  C   UNL     1      -0.244 -11.008  12.351  1.00  0.00     0.051 C 
BRANCH  44  45
HETATM   45  C   UNL     1       1.127 -11.408  11.753  1.00  0.00     0.094 C 
BRANCH  45  46
HETATM   46  C   UNL     1       1.627 -10.566  10.533  1.00  0.00     0.051 C 
BRANCH  46  47
HETATM   47  C   UNL     1       2.755 -11.108   9.605  1.00  0.00     0.089 C 
HETATM   48  C   UNL     1       2.616 -12.632   9.459  1.00  0.00     0.033 C 
BRANCH  47  49
HETATM   49  N   UNL     1       2.779 -10.519   8.275  1.00  0.00    -0.334 N 
HETATM   50  C   UNL     1       3.259 -11.147   7.110  1.00  0.00     0.210 A 
HETATM   51  N   UNL     1       3.099 -10.408   6.080  1.00  0.00    -0.254 NA
HETATM   52  C   UNL     1       2.474  -9.222   6.530  1.00  0.00     0.150 A 
HETATM   53  C   UNL     1       2.268  -9.279   7.843  1.00  0.00     0.082 A 
ENDBRANCH  47  49
ENDBRANCH  46  47
ENDBRANCH  45  46
BRANCH  45  54
HETATM   54  N   UNL     1       2.139 -11.434  12.844  1.00  0.00    -0.339 N 
HETATM   55  C   UNL     1       2.554 -10.361  13.559  1.00  0.00     0.209 A 
HETATM   56  N   UNL     1       3.450 -10.687  14.512  1.00  0.00    -0.254 NA
HETATM   57  C   UNL     1       3.604 -12.016  14.400  1.00  0.00     0.142 A 
HETATM   58  C   UNL     1       2.800 -12.483  13.380  1.00  0.00     0.026 A 
HETATM   59  C   UNL     1       2.713 -13.923  12.982  1.00  0.00     0.070 C 
ENDBRANCH  45  54
ENDBRANCH  44  45
ENDBRANCH  43  44
BRANCH  43  60
HETATM   60  N   UNL     1      -2.241  -9.830  11.570  1.00  0.00    -0.345 N 
HETATM   61  C   UNL     1      -3.011 -10.830  12.046  1.00  0.00     0.209 A 
HETATM   62  N   UNL     1      -4.314 -10.653  11.756  1.00  0.00    -0.255 NA
HETATM   63  C   UNL     1      -4.363  -9.487  11.082  1.00  0.00     0.135 A 
HETATM   64  C   UNL     1      -3.092  -8.970  10.977  1.00  0.00     0.111 A 
ENDBRANCH  43  60
ENDBRANCH  42  43
ENDBRANCH  41  42
BRANCH  41  65
HETATM   65  N   UNL     1      -0.380  -6.684  10.705  1.00  0.00    -0.339 N 
HETATM   66  C   UNL     1       0.534  -6.876   9.648  1.00  0.00     0.209 A 
HETATM   67  N   UNL     1       0.044  -6.383   8.431  1.00  0.00    -0.254 NA
HETATM   68  C   UNL     1      -1.160  -5.754   8.781  1.00  0.00     0.142 A 
HETATM   69  C   UNL     1      -1.403  -5.874  10.088  1.00  0.00     0.026 A 
HETATM   70  C   UNL     1      -2.555  -5.125  10.714  1.00  0.00     0.070 C 
ENDBRANCH  41  65
ENDBRANCH  40  41
ENDBRANCH  39  40
BRANCH  39  71
HETATM   71  N   UNL     1      -1.148  -6.538  15.633  1.00  0.00    -0.343 N 
HETATM   72  C   UNL     1      -1.263  -7.778  16.165  1.00  0.00     0.111 A 
HETATM   73  C   UNL     1      -2.377  -7.814  16.971  1.00  0.00     0.135 A 
HETATM   74  N   UNL     1      -2.984  -6.617  16.935  1.00  0.00    -0.255 NA
HETATM   75  C   UNL     1      -2.226  -5.872  16.108  1.00  0.00     0.209 A 
ENDBRANCH  39  71
ENDBRANCH  38  39
ENDBRANCH  37  38
ENDBRANCH  27  37
ENDBRANCH  21  22
ENDBRANCH  11  21
BRANCH  12  76
HETATM   76  O   UNL     1       2.970  -1.297  13.390  1.00  0.00    -0.390 OA
HETATM   77  H   UNL     1       3.093  -0.324  13.246  1.00  0.00     0.210 HD
ENDBRANCH  12  76
BRANCH  13  78
HETATM   78  O   UNL     1       0.587  -0.378  12.336  1.00  0.00    -0.388 OA
HETATM   79  H   UNL     1       0.287  -1.196  11.909  1.00  0.00     0.210 HD
ENDBRANCH  13  78
ENDBRANCH   7   8
ENDBRANCH   1   7
BRANCH   2  80
HETATM   80  C   UNL     1       2.471   3.976  11.676  1.00  0.00     0.203 C 
BRANCH  80  81
HETATM   81  O   UNL     1       2.550   4.056  10.265  1.00  0.00    -0.379 OA
BRANCH  81  82
HETATM   82  C   UNL     1       3.520   4.994   9.854  1.00  0.00     0.281 C 
BRANCH  82  83
HETATM   83  C   UNL     1       3.121   5.532   8.514  1.00  0.00     0.313 C 
HETATM   84  O   UNL     1       2.569   6.617   8.433  1.00  0.00    -0.260 OA
BRANCH  83  85
HETATM   85  O   UNL     1       3.367   4.827   7.392  1.00  0.00    -0.148 OA
HETATM   86 Na   UNL     1       2.219   5.021   5.748  1.00  0.00     0.000 Na
ENDBRANCH  83  85
ENDBRANCH  82  83
ENDBRANCH  81  82
ENDBRANCH  80  81
ENDBRANCH   2  80
BRANCH   3  87
HETATM   87  O   UNL     1       0.501   3.535  15.871  1.00  0.00    -0.390 OA
HETATM   88  H   UNL     1      -0.396   3.110  15.871  1.00  0.00     0.210 HD
ENDBRANCH   3  87
BRANCH   4  89
HETATM   89  O   UNL     1      -1.743   3.921  14.026  1.00  0.00    -0.376 OA
BRANCH  89  90
HETATM   90  C   UNL     1      -2.796   4.221  15.020  1.00  0.00     0.194 C 
BRANCH  90  91
HETATM   91  C   UNL     1      -2.904   3.173  16.203  1.00  0.00     0.116 C 
BRANCH  91  92
HETATM   92  N   UNL     1      -2.887   3.835  17.532  1.00  0.00    -0.343 N 
HETATM   93  C   UNL     1      -3.684   4.831  17.979  1.00  0.00     0.111 A 
HETATM   94  C   UNL     1      -3.308   5.155  19.261  1.00  0.00     0.135 A 
HETATM   95  N   UNL     1      -2.269   4.384  19.623  1.00  0.00    -0.255 NA
HETATM   96  C   UNL     1      -2.030   3.598  18.554  1.00  0.00     0.209 A 
ENDBRANCH  91  92
BRANCH  91  97
HETATM   97  C   UNL     1      -4.093   2.159  15.963  1.00  0.00     0.053 C 
BRANCH  97  98
HETATM   98  C   UNL     1      -4.330   0.882  16.871  1.00  0.00     0.094 C 
BRANCH  98  99
HETATM   99  C   UNL     1      -3.036   0.203  17.460  1.00  0.00     0.051 C 
BRANCH  99 100
HETATM  100  C   UNL     1      -3.011  -1.361  17.509  1.00  0.00     0.094 C 
BRANCH 100 101
HETATM  101  N   UNL     1      -3.174  -1.955  16.168  1.00  0.00    -0.345 N 
HETATM  102  C   UNL     1      -4.208  -2.705  15.740  1.00  0.00     0.111 A 
HETATM  103  C   UNL     1      -3.952  -3.089  14.443  1.00  0.00     0.135 A 
HETATM  104  N   UNL     1      -2.758  -2.595  14.062  1.00  0.00    -0.255 NA
HETATM  105  C   UNL     1      -2.307  -1.914  15.135  1.00  0.00     0.209 A 
ENDBRANCH 100 101
BRANCH 100 106
HETATM  106  C   UNL     1      -4.100  -1.978  18.454  1.00  0.00     0.051 C 
BRANCH 106 107
HETATM  107  C   UNL     1      -3.652  -1.913  19.940  1.00  0.00     0.094 C 
BRANCH 107 108
HETATM  108  C   UNL     1      -4.771  -1.646  21.001  1.00  0.00     0.051 C 
BRANCH 108 109
HETATM  109  C   UNL     1      -5.742  -2.790  21.426  1.00  0.00     0.089 C 
HETATM  110  C   UNL     1      -5.775  -2.892  22.960  1.00  0.00     0.033 C 
BRANCH 109 111
HETATM  111  N   UNL     1      -7.108  -2.666  20.942  1.00  0.00    -0.334 N 
HETATM  112  C   UNL     1      -8.281  -2.348  21.651  1.00  0.00     0.082 A 
HETATM  113  C   UNL     1      -9.271  -2.362  20.760  1.00  0.00     0.150 A 
HETATM  114  N   UNL     1      -8.777  -2.692  19.478  1.00  0.00    -0.254 NA
HETATM  115  C   UNL     1      -7.520  -2.867  19.611  1.00  0.00     0.210 A 
ENDBRANCH 109 111
ENDBRANCH 108 109
ENDBRANCH 107 108
BRANCH 107 116
HETATM  116  N   UNL     1      -2.818  -3.060  20.299  1.00  0.00    -0.339 N 
HETATM  117  C   UNL     1      -2.800  -4.313  19.653  1.00  0.00     0.209 A 
HETATM  118  N   UNL     1      -1.828  -5.148  20.232  1.00  0.00    -0.254 NA
HETATM  119  C   UNL     1      -1.245  -4.359  21.247  1.00  0.00     0.142 A 
HETATM  120  C   UNL     1      -1.806  -3.149  21.291  1.00  0.00     0.026 A 
HETATM  121  C   UNL     1      -1.391  -2.079  22.260  1.00  0.00     0.070 C 
ENDBRANCH 107 116
ENDBRANCH 106 107
ENDBRANCH 100 106
ENDBRANCH  99 100
ENDBRANCH  98  99
BRANCH  98 122
HETATM  122  N   UNL     1      -5.539   0.833  17.723  1.00  0.00    -0.339 N 
HETATM  123  C   UNL     1      -5.874   1.271  19.044  1.00  0.00     0.026 A 
HETATM  124  C   UNL     1      -7.163   1.040  19.299  1.00  0.00     0.142 A 
HETATM  125  C   UNL     1      -5.026   1.949  20.053  1.00  0.00     0.070 C 
HETATM  126  N   UNL     1      -7.809   0.500  18.177  1.00  0.00    -0.254 NA
HETATM  127  C   UNL     1      -6.798   0.436  17.206  1.00  0.00     0.209 A 
ENDBRANCH  98 122
ENDBRANCH  97  98
ENDBRANCH  91  97
ENDBRANCH  90  91
ENDBRANCH  89  90
ENDBRANCH   4  89
BRANCH   5 128
HETATM  128  O   UNL     1      -0.934   6.370  12.145  1.00  0.00    -0.348 OA
BRANCH 128 129
HETATM  129  C   UNL     1      -1.037   7.465  13.082  1.00  0.00     0.187 C 
HETATM  130  C   UNL     1      -0.879   8.859  12.410  1.00  0.00     0.180 C 
HETATM  131  O   UNL     1      -0.747   9.868  13.408  1.00  0.00    -0.348 OA
HETATM  132  C   UNL     1       0.363   8.914  11.510  1.00  0.00     0.203 C 
HETATM  133  C   UNL     1      -1.881   9.962  14.263  1.00  0.00     0.292 C 
HETATM  134  O   UNL     1      -2.948  10.630  13.588  1.00  0.00    -0.348 OA
HETATM  135  C   UNL     1      -2.289   8.594  14.882  1.00  0.00     0.204 C 
HETATM  136  C   UNL     1      -3.168  11.950  14.098  1.00  0.00     0.187 C 
HETATM  137  C   UNL     1      -3.361  12.989  12.938  1.00  0.00     0.176 C 
HETATM  138  C   UNL     1      -4.417  11.998  14.995  1.00  0.00     0.180 C 
HETATM  139  O   UNL     1      -3.997  14.215  13.338  1.00  0.00    -0.378 OA
HETATM  140  C   UNL     1      -2.022  13.285  12.226  1.00  0.00     0.203 C 
HETATM  141  C   UNL     1      -3.837  14.489  14.713  1.00  0.00     0.202 C 
HETATM  142  C   UNL     1      -4.562  13.435  15.591  1.00  0.00     0.173 C 
HETATM  143  O   UNL     1      -2.095  14.339  11.282  1.00  0.00    -0.379 OA
HETATM  144  C   UNL     1      -3.037  14.085  10.262  1.00  0.00     0.280 C 
HETATM  145  C   UNL     1      -2.680  14.902   9.058  1.00  0.00     0.308 C 
HETATM  146  O   UNL     1      -2.574  16.114   9.152  1.00  0.00    -0.261 OA
HETATM  147  O   UNL     1      -2.488  14.308   7.866  1.00  0.00    -0.158 OA
HETATM  148 Na   UNL     1      -2.805  12.331   7.648  1.00  0.00    -0.020 Na
HETATM  149 Na   UNL     1      -1.432  10.222   6.760  1.00  0.00     0.080 Na
HETATM  150  O   UNL     1      -0.278  11.631   7.628  1.00  0.00    -0.180 OA
HETATM  151  C   UNL     1       0.197  11.447   8.874  1.00  0.00     0.302 C 
HETATM  152  C   UNL     1      -0.119  10.177   9.606  1.00  0.00     0.280 C 
HETATM  153  O   UNL     1       0.889  12.312   9.388  1.00  0.00    -0.261 OA
HETATM  154  O   UNL     1       0.487  10.182  10.888  1.00  0.00    -0.379 OA
HETATM  155  C   UNL     1      -2.375   7.461  13.837  1.00  0.00     0.183 C 
BRANCH 142 156
HETATM  156  O   UNL     1      -5.966  13.778  15.835  1.00  0.00    -0.391 OA
HETATM  157  H   UNL     1      -6.538  13.187  15.320  1.00  0.00     0.210 HD
ENDBRANCH 142 156
BRANCH 138 158
HETATM  158  O   UNL     1      -5.553  11.579  14.271  1.00  0.00    -0.390 OA
HETATM  159  H   UNL     1      -6.292  12.223  14.415  1.00  0.00     0.210 HD
ENDBRANCH 138 158
BRANCH 135 160
HETATM  160  O   UNL     1      -3.508   8.711  15.682  1.00  0.00    -0.388 OA
HETATM  161  H   UNL     1      -4.017   9.481  15.384  1.00  0.00     0.210 HD
ENDBRANCH 135 160
BRANCH 155 162
HETATM  162  O   UNL     1      -3.454   7.670  12.963  1.00  0.00    -0.390 OA
HETATM  163  H   UNL     1      -3.094   8.161  12.179  1.00  0.00     0.210 HD
ENDBRANCH 155 162
ENDBRANCH 128 129
ENDBRANCH   5 128
TORSDOF 61
ENDMDL
MODEL 5
REMARK VINA RESULT:      -7.4      2.522      5.253
REMARK WARNING: 32 MAX_TORS EXCEEDED!!!
REMARK  61 active torsions:
REMARK  status: ('A' for Active; 'I' for Inactive)
REMARK    1  A    between atoms: C_1  and  O_30 
REMARK    2  A    between atoms: C_2  and  C_6 
REMARK    3  A    between atoms: C_3  and  O_9 
REMARK    4  A    between atoms: C_4  and  O_11 
REMARK    5  A    between atoms: C_5  and  O_12 
REMARK    6  A    between atoms: C_6  and  O_7 
REMARK    7  A    between atoms: O_7  and  C_147 
REMARK    8  A    between atoms: O_11  and  C_107 
REMARK    9  A    between atoms: O_12  and  C_20 
REMARK   10  A    between atoms: O_14  and  C_18 
REMARK   11  A    between atoms: O_21  and  C_24 
REMARK   12  A    between atoms: O_26  and  C_29 
REMARK   13  A    between atoms: C_28  and  C_34 
REMARK   14  A    between atoms: O_30  and  C_33 
REMARK   15  A    between atoms: C_31  and  O_53 
REMARK   16  A    between atoms: O_32  and  C_35 
REMARK   17  A    between atoms: C_34  and  O_59 
REMARK   18  A    between atoms: O_37  and  C_41 
REMARK   19  A    between atoms: O_43  and  C_46 
REMARK   20  A    between atoms: O_48  and  C_52 
REMARK   21  A    between atoms: C_50  and  C_57 
REMARK   22  A    between atoms: O_51  and  C_57 
REMARK   23  A    between atoms: O_51  and  C_60 
REMARK   24  A    between atoms: O_53  and  C_56 
REMARK   25  A    between atoms: O_55  and  C_58 
REMARK   26  A    between atoms: O_55  and  C_61 
REMARK   27  A    between atoms: O_59  and  C_142 
REMARK   28  A    between atoms: C_60  and  C_137 
REMARK   29  A    between atoms: C_61  and  C_62 
REMARK   30  A    between atoms: C_62  and  C_63 
REMARK   31  A    between atoms: C_62  and  N_76 
REMARK   32  A    between atoms: C_63  and  C_64 
REMARK   33  A    between atoms: C_64  and  C_65 
REMARK   34  A    between atoms: C_64  and  N_90 
REMARK   35  A    between atoms: C_65  and  C_66 
REMARK   36  A    between atoms: C_66  and  C_67 
REMARK   37  A    between atoms: C_66  and  N_80 
REMARK   38  A    between atoms: C_67  and  C_68 
REMARK   39  A    between atoms: C_68  and  C_69 
REMARK   40  A    between atoms: C_68  and  N_95 
REMARK   41  A    between atoms: C_69  and  C_70 
REMARK   42  A    between atoms: C_70  and  N_85 
REMARK   43  A    between atoms: N_102  and  C_108 
REMARK   44  A    between atoms: C_107  and  C_108 
REMARK   45  A    between atoms: C_108  and  C_115 
REMARK   46  A    between atoms: N_111  and  C_117 
REMARK   47  A    between atoms: C_113  and  C_117 
REMARK   48  A    between atoms: C_113  and  C_119 
REMARK   49  A    between atoms: N_114  and  C_124 
REMARK   50  A    between atoms: C_115  and  C_119 
REMARK   51  A    between atoms: C_117  and  C_121 
REMARK   52  A    between atoms: N_118  and  C_119 
REMARK   53  A    between atoms: C_121  and  C_126 
REMARK   54  A    between atoms: C_124  and  C_125 
REMARK   55  A    between atoms: C_125  and  C_126 
REMARK   56  A    between atoms: C_126  and  N_129 
REMARK   57  A    between atoms: C_137  and  O_139 
REMARK   58  A    between atoms: C_142  and  C_144 
REMARK   59  A    between atoms: O_143  and  C_144 
REMARK   60  A    between atoms: C_147  and  C_149 
REMARK   61  A    between atoms: O_148  and  C_149 
ROOT
HETATM    1  C   UNL     1       0.969   6.741  15.297  1.00  0.00     0.187 C 
HETATM    2  C   UNL     1       2.464   7.152  15.551  1.00  0.00     0.180 C 
HETATM    3  C   UNL     1       0.124   7.917  14.752  1.00  0.00     0.183 C 
HETATM    4  C   UNL     1       0.877   8.662  13.607  1.00  0.00     0.208 C 
HETATM    5  C   UNL     1       2.194   9.121  14.281  1.00  0.00     0.292 C 
HETATM    6  O   UNL     1       3.014   7.985  14.516  1.00  0.00    -0.348 OA
ENDROOT
BRANCH   1   7
HETATM    7  O   UNL     1       0.918   5.679  14.360  1.00  0.00    -0.348 OA
BRANCH   7   8
HETATM    8  C   UNL     1       0.575   4.418  14.939  1.00  0.00     0.292 C 
HETATM    9  O   UNL     1       1.483   3.445  14.464  1.00  0.00    -0.348 OA
HETATM   10  C   UNL     1       1.285   2.145  15.039  1.00  0.00     0.180 C 
HETATM   11  C   UNL     1      -0.198   1.808  15.413  1.00  0.00     0.187 C 
HETATM   12  C   UNL     1      -1.113   2.534  14.429  1.00  0.00     0.183 C 
HETATM   13  C   UNL     1      -0.907   4.062  14.599  1.00  0.00     0.204 C 
BRANCH  10  14
HETATM   14  C   UNL     1       2.233   1.914  16.223  1.00  0.00     0.203 C 
BRANCH  14  15
HETATM   15  O   UNL     1       2.529   0.538  16.322  1.00  0.00    -0.379 OA
BRANCH  15  16
HETATM   16  C   UNL     1       3.443   0.325  17.374  1.00  0.00     0.281 C 
BRANCH  16  17
HETATM   17  C   UNL     1       2.939  -0.799  18.224  1.00  0.00     0.313 C 
HETATM   18  O   UNL     1       3.695  -1.395  18.974  1.00  0.00    -0.260 OA
BRANCH  17  19
HETATM   19  O   UNL     1       1.642  -1.157  18.161  1.00  0.00    -0.148 OA
HETATM   20 Na   UNL     1       0.781  -1.487  16.369  1.00  0.00     0.000 Na
ENDBRANCH  17  19
ENDBRANCH  16  17
ENDBRANCH  15  16
ENDBRANCH  14  15
ENDBRANCH  10  14
BRANCH  11  21
HETATM   21  O   UNL     1      -0.420   0.411  15.298  1.00  0.00    -0.348 OA
BRANCH  21  22
HETATM   22  C   UNL     1      -1.648  -0.040  15.842  1.00  0.00     0.292 C 
HETATM   23  O   UNL     1      -1.412  -0.384  17.204  1.00  0.00    -0.351 OA
HETATM   24  C   UNL     1      -2.443  -1.147  17.843  1.00  0.00     0.151 C 
HETATM   25  C   UNL     1      -3.773  -1.175  17.056  1.00  0.00     0.068 C 
HETATM   26  C   UNL     1      -3.560  -1.679  15.607  1.00  0.00     0.154 C 
HETATM   27  C   UNL     1      -2.173  -1.260  15.027  1.00  0.00     0.205 C 
BRANCH  24  28
HETATM   28  C   UNL     1      -2.681  -0.549  19.237  1.00  0.00     0.200 C 
BRANCH  28  29
HETATM   29  O   UNL     1      -2.221   0.787  19.257  1.00  0.00    -0.379 OA
BRANCH  29  30
HETATM   30  C   UNL     1      -3.317   1.671  19.377  1.00  0.00     0.281 C 
BRANCH  30  31
HETATM   31  C   UNL     1      -2.832   2.966  19.956  1.00  0.00     0.313 C 
HETATM   32  O   UNL     1      -2.297   2.987  21.054  1.00  0.00    -0.260 OA
BRANCH  31  33
HETATM   33  O   UNL     1      -2.981   4.113  19.267  1.00  0.00    -0.148 OA
HETATM   34 Na   UNL     1      -1.993   5.777  19.821  1.00  0.00     0.000 Na
ENDBRANCH  31  33
ENDBRANCH  30  31
ENDBRANCH  29  30
ENDBRANCH  28  29
ENDBRANCH  24  28
BRANCH  26  35
HETATM   35  O   UNL     1      -3.780  -3.064  15.473  1.00  0.00    -0.393 OA
HETATM   36  H   UNL     1      -2.974  -3.540  15.804  1.00  0.00     0.210 HD
ENDBRANCH  26  35
BRANCH  27  37
HETATM   37  O   UNL     1      -1.244  -2.418  15.048  1.00  0.00    -0.376 OA
BRANCH  37  38
HETATM   38  C   UNL     1      -1.072  -3.143  13.772  1.00  0.00     0.194 C 
BRANCH  38  39
HETATM   39  C   UNL     1      -0.879  -4.677  13.973  1.00  0.00     0.116 C 
BRANCH  39  40
HETATM   40  C   UNL     1      -2.135  -5.421  13.357  1.00  0.00     0.053 C 
BRANCH  40  41
HETATM   41  C   UNL     1      -1.959  -6.654  12.398  1.00  0.00     0.094 C 
BRANCH  41  42
HETATM   42  C   UNL     1      -0.435  -6.738  11.955  1.00  0.00     0.051 C 
BRANCH  42  43
HETATM   43  C   UNL     1       0.067  -7.444  10.645  1.00  0.00     0.094 C 
BRANCH  43  44
HETATM   44  C   UNL     1      -0.493  -8.899  10.536  1.00  0.00     0.051 C 
BRANCH  44  45
HETATM   45  C   UNL     1       0.632  -9.962  10.596  1.00  0.00     0.094 C 
BRANCH  45  46
HETATM   46  C   UNL     1       1.992  -9.574   9.929  1.00  0.00     0.051 C 
BRANCH  46  47
HETATM   47  C   UNL     1       2.506 -10.342   8.674  1.00  0.00     0.089 C 
HETATM   48  C   UNL     1       2.396  -9.439   7.435  1.00  0.00     0.033 C 
BRANCH  47  49
HETATM   49  N   UNL     1       3.877 -10.818   8.775  1.00  0.00    -0.334 N 
HETATM   50  C   UNL     1       4.529 -11.187   9.967  1.00  0.00     0.210 A 
HETATM   51  N   UNL     1       5.709 -11.621   9.740  1.00  0.00    -0.254 NA
HETATM   52  C   UNL     1       5.893 -11.569   8.339  1.00  0.00     0.150 A 
HETATM   53  C   UNL     1       4.799 -11.098   7.747  1.00  0.00     0.082 A 
ENDBRANCH  47  49
ENDBRANCH  46  47
ENDBRANCH  45  46
BRANCH  45  54
HETATM   54  N   UNL     1       0.822 -10.382  12.011  1.00  0.00    -0.339 N 
HETATM   55  C   UNL     1       1.793  -9.935  12.841  1.00  0.00     0.209 A 
HETATM   56  N   UNL     1       1.698 -10.458  14.080  1.00  0.00    -0.254 NA
HETATM   57  C   UNL     1       0.624 -11.262  14.034  1.00  0.00     0.142 A 
HETATM   58  C   UNL     1       0.078 -11.219  12.767  1.00  0.00     0.026 A 
HETATM   59  C   UNL     1      -1.138 -11.990  12.359  1.00  0.00     0.070 C 
ENDBRANCH  45  54
ENDBRANCH  44  45
ENDBRANCH  43  44
BRANCH  43  60
HETATM   60  N   UNL     1      -0.360  -6.717   9.436  1.00  0.00    -0.345 N 
HETATM   61  C   UNL     1      -0.513  -5.384   9.304  1.00  0.00     0.209 A 
HETATM   62  N   UNL     1      -0.868  -5.032   8.053  1.00  0.00    -0.255 NA
HETATM   63  C   UNL     1      -0.926  -6.193   7.370  1.00  0.00     0.135 A 
HETATM   64  C   UNL     1      -0.602  -7.231   8.214  1.00  0.00     0.111 A 
ENDBRANCH  43  60
ENDBRANCH  42  43
ENDBRANCH  41  42
BRANCH  41  65
HETATM   65  N   UNL     1      -2.623  -7.894  12.854  1.00  0.00    -0.339 N 
HETATM   66  C   UNL     1      -3.845  -8.358  12.322  1.00  0.00     0.209 A 
HETATM   67  N   UNL     1      -4.325  -9.482  13.007  1.00  0.00    -0.254 NA
HETATM   68  C   UNL     1      -3.430  -9.636  14.075  1.00  0.00     0.142 A 
HETATM   69  C   UNL     1      -2.469  -8.710  14.035  1.00  0.00     0.026 A 
HETATM   70  C   UNL     1      -1.497  -8.579  15.183  1.00  0.00     0.070 C 
ENDBRANCH  41  65
ENDBRANCH  40  41
ENDBRANCH  39  40
BRANCH  39  71
HETATM   71  N   UNL     1      -0.501  -5.044  15.366  1.00  0.00    -0.343 N 
HETATM   72  C   UNL     1      -1.295  -5.229  16.447  1.00  0.00     0.111 A 
HETATM   73  C   UNL     1      -0.504  -5.524  17.533  1.00  0.00     0.135 A 
HETATM   74  N   UNL     1       0.785  -5.501  17.157  1.00  0.00    -0.255 NA
HETATM   75  C   UNL     1       0.755  -5.195  15.846  1.00  0.00     0.209 A 
ENDBRANCH  39  71
ENDBRANCH  38  39
ENDBRANCH  37  38
ENDBRANCH  27  37
ENDBRANCH  21  22
ENDBRANCH  11  21
BRANCH  12  76
HETATM   76  O   UNL     1      -0.876   2.082  13.112  1.00  0.00    -0.390 OA
HETATM   77  H   UNL     1      -0.350   2.760  12.617  1.00  0.00     0.210 HD
ENDBRANCH  12  76
BRANCH  13  78
HETATM   78  O   UNL     1      -1.416   4.772  13.432  1.00  0.00    -0.388 OA
HETATM   79  H   UNL     1      -2.183   5.308  13.689  1.00  0.00     0.210 HD
ENDBRANCH  13  78
ENDBRANCH   7   8
ENDBRANCH   1   7
BRANCH   2  80
HETATM   80  C   UNL     1       2.692   7.743  16.967  1.00  0.00     0.203 C 
BRANCH  80  81
HETATM   81  O   UNL     1       3.792   7.112  17.597  1.00  0.00    -0.379 OA
BRANCH  81  82
HETATM   82  C   UNL     1       4.133   7.755  18.805  1.00  0.00     0.281 C 
BRANCH  82  83
HETATM   83  C   UNL     1       5.577   8.149  18.742  1.00  0.00     0.313 C 
HETATM   84  O   UNL     1       6.434   7.392  19.169  1.00  0.00    -0.260 OA
BRANCH  83  85
HETATM   85  O   UNL     1       5.941   9.335  18.216  1.00  0.00    -0.148 OA
HETATM   86 Na   UNL     1       6.991   9.457  16.501  1.00  0.00     0.000 Na
ENDBRANCH  83  85
ENDBRANCH  82  83
ENDBRANCH  81  82
ENDBRANCH  80  81
ENDBRANCH   2  80
BRANCH   3  87
HETATM   87  O   UNL     1      -1.135   7.458  14.333  1.00  0.00    -0.390 OA
HETATM   88  H   UNL     1      -1.741   8.244  14.331  1.00  0.00     0.210 HD
ENDBRANCH   3  87
BRANCH   4  89
HETATM   89  O   UNL     1       1.066   7.767  12.424  1.00  0.00    -0.376 OA
BRANCH  89  90
HETATM   90  C   UNL     1       1.794   8.352  11.277  1.00  0.00     0.194 C 
BRANCH  90  91
HETATM   91  C   UNL     1       0.878   8.745  10.046  1.00  0.00     0.116 C 
BRANCH  91  92
HETATM   92  N   UNL     1       0.608  10.204  10.001  1.00  0.00    -0.343 N 
HETATM   93  C   UNL     1       0.312  11.032  11.028  1.00  0.00     0.111 A 
HETATM   94  C   UNL     1       0.116  12.298  10.533  1.00  0.00     0.135 A 
HETATM   95  N   UNL     1       0.268  12.277   9.198  1.00  0.00    -0.255 NA
HETATM   96  C   UNL     1       0.559  10.994   8.902  1.00  0.00     0.209 A 
ENDBRANCH  91  92
BRANCH  91  97
HETATM   97  C   UNL     1       1.421   8.112   8.703  1.00  0.00     0.053 C 
BRANCH  97  98
HETATM   98  C   UNL     1       1.275   6.572   8.359  1.00  0.00     0.094 C 
BRANCH  98  99
HETATM   99  C   UNL     1       1.892   6.109   6.985  1.00  0.00     0.051 C 
BRANCH  99 100
HETATM  100  C   UNL     1       0.925   6.043   5.757  1.00  0.00     0.094 C 
BRANCH 100 101
HETATM  101  N   UNL     1      -0.442   5.659   6.154  1.00  0.00    -0.345 N 
HETATM  102  C   UNL     1      -1.383   6.465   6.686  1.00  0.00     0.111 A 
HETATM  103  C   UNL     1      -2.502   5.707   6.944  1.00  0.00     0.135 A 
HETATM  104  N   UNL     1      -2.263   4.429   6.590  1.00  0.00    -0.255 NA
HETATM  105  C   UNL     1      -1.000   4.432   6.118  1.00  0.00     0.209 A 
ENDBRANCH 100 101
BRANCH 100 106
HETATM  106  C   UNL     1       1.403   5.061   4.632  1.00  0.00     0.051 C 
BRANCH 106 107
HETATM  107  C   UNL     1       1.376   5.750   3.239  1.00  0.00     0.094 C 
BRANCH 107 108
HETATM  108  C   UNL     1       0.394   6.957   3.069  1.00  0.00     0.051 C 
BRANCH 108 109
HETATM  109  C   UNL     1      -0.991   6.752   2.383  1.00  0.00     0.089 C 
HETATM  110  C   UNL     1      -2.088   7.410   3.237  1.00  0.00     0.033 C 
BRANCH 109 111
HETATM  111  N   UNL     1      -1.100   7.256   1.024  1.00  0.00    -0.334 N 
HETATM  112  C   UNL     1      -1.620   6.627  -0.123  1.00  0.00     0.082 A 
HETATM  113  C   UNL     1      -1.491   7.501  -1.119  1.00  0.00     0.150 A 
HETATM  114  N   UNL     1      -0.888   8.693  -0.656  1.00  0.00    -0.254 NA
HETATM  115  C   UNL     1      -0.668   8.524   0.590  1.00  0.00     0.210 A 
ENDBRANCH 109 111
ENDBRANCH 108 109
ENDBRANCH 107 108
BRANCH 107 116
HETATM  116  N   UNL     1       2.726   6.071   2.774  1.00  0.00    -0.339 N 
HETATM  117  C   UNL     1       3.905   6.035   3.546  1.00  0.00     0.209 A 
HETATM  118  N   UNL     1       5.022   6.343   2.750  1.00  0.00    -0.254 NA
HETATM  119  C   UNL     1       4.486   6.557   1.461  1.00  0.00     0.142 A 
HETATM  120  C   UNL     1       3.161   6.398   1.463  1.00  0.00     0.026 A 
HETATM  121  C   UNL     1       2.308   6.550   0.236  1.00  0.00     0.070 C 
ENDBRANCH 107 116
ENDBRANCH 106 107
ENDBRANCH 100 106
ENDBRANCH  99 100
ENDBRANCH  98  99
BRANCH  98 122
HETATM  122  N   UNL     1       1.334   5.590   9.465  1.00  0.00    -0.339 N 
HETATM  123  C   UNL     1       2.376   4.967  10.223  1.00  0.00     0.026 A 
HETATM  124  C   UNL     1       1.860   4.198  11.182  1.00  0.00     0.142 A 
HETATM  125  C   UNL     1       3.846   5.120  10.101  1.00  0.00     0.070 C 
HETATM  126  N   UNL     1       0.460   4.283  11.198  1.00  0.00    -0.254 NA
HETATM  127  C   UNL     1       0.168   5.190  10.168  1.00  0.00     0.209 A 
ENDBRANCH  98 122
ENDBRANCH  97  98
ENDBRANCH  91  97
ENDBRANCH  90  91
ENDBRANCH  89  90
ENDBRANCH   4  89
BRANCH   5 128
HETATM  128  O   UNL     1       2.881  10.145  13.540  1.00  0.00    -0.348 OA
BRANCH 128 129
HETATM  129  C   UNL     1       3.330  11.205  14.410  1.00  0.00     0.187 C 
HETATM  130  C   UNL     1       2.334  11.508  15.567  1.00  0.00     0.180 C 
HETATM  131  O   UNL     1       2.714  12.708  16.234  1.00  0.00    -0.348 OA
HETATM  132  C   UNL     1       0.901  11.684  15.047  1.00  0.00     0.203 C 
HETATM  133  C   UNL     1       4.006  12.636  16.827  1.00  0.00     0.292 C 
HETATM  134  O   UNL     1       3.949  11.869  18.030  1.00  0.00    -0.348 OA
HETATM  135  C   UNL     1       5.104  12.163  15.831  1.00  0.00     0.204 C 
HETATM  136  C   UNL     1       4.085  12.686  19.199  1.00  0.00     0.187 C 
HETATM  137  C   UNL     1       3.036  12.294  20.299  1.00  0.00     0.176 C 
HETATM  138  C   UNL     1       5.491  12.551  19.810  1.00  0.00     0.180 C 
HETATM  139  O   UNL     1       3.367  12.747  21.623  1.00  0.00    -0.378 OA
HETATM  140  C   UNL     1       1.618  12.763  19.908  1.00  0.00     0.203 C 
HETATM  141  C   UNL     1       4.221  13.870  21.618  1.00  0.00     0.202 C 
HETATM  142  C   UNL     1       5.613  13.523  21.027  1.00  0.00     0.173 C 
HETATM  143  O   UNL     1       0.653  12.591  20.933  1.00  0.00    -0.379 OA
HETATM  144  C   UNL     1       0.528  11.244  21.333  1.00  0.00     0.280 C 
HETATM  145  C   UNL     1      -0.820  11.048  21.957  1.00  0.00     0.308 C 
HETATM  146  O   UNL     1      -1.159  11.736  22.907  1.00  0.00    -0.261 OA
HETATM  147  O   UNL     1      -1.657  10.105  21.486  1.00  0.00    -0.158 OA
HETATM  148 Na   UNL     1      -1.065   8.855  20.022  1.00  0.00    -0.020 Na
HETATM  149 Na   UNL     1      -1.950   8.112  17.617  1.00  0.00     0.080 Na
HETATM  150  O   UNL     1      -2.394  10.023  18.087  1.00  0.00    -0.180 OA
HETATM  151  C   UNL     1      -1.695  11.036  17.543  1.00  0.00     0.302 C 
HETATM  152  C   UNL     1      -0.595  10.737  16.569  1.00  0.00     0.280 C 
HETATM  153  O   UNL     1      -1.971  12.187  17.843  1.00  0.00    -0.261 OA
HETATM  154  O   UNL     1      -0.000  11.940  16.111  1.00  0.00    -0.379 OA
HETATM  155  C   UNL     1       4.697  10.901  15.040  1.00  0.00     0.183 C 
BRANCH 142 156
HETATM  156  O   UNL     1       6.539  13.005  22.039  1.00  0.00    -0.391 OA
HETATM  157  H   UNL     1       6.190  12.177  22.404  1.00  0.00     0.210 HD
ENDBRANCH 142 156
BRANCH 138 158
HETATM  158  O   UNL     1       5.750  11.205  20.145  1.00  0.00    -0.390 OA
HETATM  159  H   UNL     1       5.142  10.923  20.874  1.00  0.00     0.210 HD
ENDBRANCH 138 158
BRANCH 135 160
HETATM  160  O   UNL     1       6.399  12.015  16.495  1.00  0.00    -0.388 OA
HETATM  161  H   UNL     1       6.263  11.906  17.449  1.00  0.00     0.210 HD
ENDBRANCH 135 160
BRANCH 155 162
HETATM  162  O   UNL     1       4.630   9.782  15.888  1.00  0.00    -0.390 OA
HETATM  163  H   UNL     1       4.861  10.101  16.799  1.00  0.00     0.210 HD
ENDBRANCH 155 162
ENDBRANCH 128 129
ENDBRANCH   5 128
TORSDOF 61
ENDMDL
MODEL 6
REMARK VINA RESULT:      -7.3      1.949      4.229
REMARK WARNING: 32 MAX_TORS EXCEEDED!!!
REMARK  61 active torsions:
REMARK  status: ('A' for Active; 'I' for Inactive)
REMARK    1  A    between atoms: C_1  and  O_30 
REMARK    2  A    between atoms: C_2  and  C_6 
REMARK    3  A    between atoms: C_3  and  O_9 
REMARK    4  A    between atoms: C_4  and  O_11 
REMARK    5  A    between atoms: C_5  and  O_12 
REMARK    6  A    between atoms: C_6  and  O_7 
REMARK    7  A    between atoms: O_7  and  C_147 
REMARK    8  A    between atoms: O_11  and  C_107 
REMARK    9  A    between atoms: O_12  and  C_20 
REMARK   10  A    between atoms: O_14  and  C_18 
REMARK   11  A    between atoms: O_21  and  C_24 
REMARK   12  A    between atoms: O_26  and  C_29 
REMARK   13  A    between atoms: C_28  and  C_34 
REMARK   14  A    between atoms: O_30  and  C_33 
REMARK   15  A    between atoms: C_31  and  O_53 
REMARK   16  A    between atoms: O_32  and  C_35 
REMARK   17  A    between atoms: C_34  and  O_59 
REMARK   18  A    between atoms: O_37  and  C_41 
REMARK   19  A    between atoms: O_43  and  C_46 
REMARK   20  A    between atoms: O_48  and  C_52 
REMARK   21  A    between atoms: C_50  and  C_57 
REMARK   22  A    between atoms: O_51  and  C_57 
REMARK   23  A    between atoms: O_51  and  C_60 
REMARK   24  A    between atoms: O_53  and  C_56 
REMARK   25  A    between atoms: O_55  and  C_58 
REMARK   26  A    between atoms: O_55  and  C_61 
REMARK   27  A    between atoms: O_59  and  C_142 
REMARK   28  A    between atoms: C_60  and  C_137 
REMARK   29  A    between atoms: C_61  and  C_62 
REMARK   30  A    between atoms: C_62  and  C_63 
REMARK   31  A    between atoms: C_62  and  N_76 
REMARK   32  A    between atoms: C_63  and  C_64 
REMARK   33  A    between atoms: C_64  and  C_65 
REMARK   34  A    between atoms: C_64  and  N_90 
REMARK   35  A    between atoms: C_65  and  C_66 
REMARK   36  A    between atoms: C_66  and  C_67 
REMARK   37  A    between atoms: C_66  and  N_80 
REMARK   38  A    between atoms: C_67  and  C_68 
REMARK   39  A    between atoms: C_68  and  C_69 
REMARK   40  A    between atoms: C_68  and  N_95 
REMARK   41  A    between atoms: C_69  and  C_70 
REMARK   42  A    between atoms: C_70  and  N_85 
REMARK   43  A    between atoms: N_102  and  C_108 
REMARK   44  A    between atoms: C_107  and  C_108 
REMARK   45  A    between atoms: C_108  and  C_115 
REMARK   46  A    between atoms: N_111  and  C_117 
REMARK   47  A    between atoms: C_113  and  C_117 
REMARK   48  A    between atoms: C_113  and  C_119 
REMARK   49  A    between atoms: N_114  and  C_124 
REMARK   50  A    between atoms: C_115  and  C_119 
REMARK   51  A    between atoms: C_117  and  C_121 
REMARK   52  A    between atoms: N_118  and  C_119 
REMARK   53  A    between atoms: C_121  and  C_126 
REMARK   54  A    between atoms: C_124  and  C_125 
REMARK   55  A    between atoms: C_125  and  C_126 
REMARK   56  A    between atoms: C_126  and  N_129 
REMARK   57  A    between atoms: C_137  and  O_139 
REMARK   58  A    between atoms: C_142  and  C_144 
REMARK   59  A    between atoms: O_143  and  C_144 
REMARK   60  A    between atoms: C_147  and  C_149 
REMARK   61  A    between atoms: O_148  and  C_149 
ROOT
HETATM    1  C   UNL     1       0.311   5.303  14.584  1.00  0.00     0.187 C 
HETATM    2  C   UNL     1       1.751   5.530  15.169  1.00  0.00     0.180 C 
HETATM    3  C   UNL     1      -0.442   6.634  14.350  1.00  0.00     0.183 C 
HETATM    4  C   UNL     1       0.475   7.676  13.638  1.00  0.00     0.208 C 
HETATM    5  C   UNL     1       1.676   7.819  14.606  1.00  0.00     0.292 C 
HETATM    6  O   UNL     1       2.451   6.630  14.561  1.00  0.00    -0.348 OA
ENDROOT
BRANCH   1   7
HETATM    7  O   UNL     1       0.401   4.614  13.349  1.00  0.00    -0.348 OA
BRANCH   7   8
HETATM    8  C   UNL     1      -0.096   3.275  13.400  1.00  0.00     0.292 C 
HETATM    9  O   UNL     1      -0.541   3.012  14.716  1.00  0.00    -0.348 OA
HETATM   10  C   UNL     1      -1.136   1.716  14.874  1.00  0.00     0.180 C 
HETATM   11  C   UNL     1      -0.550   0.604  13.940  1.00  0.00     0.187 C 
HETATM   12  C   UNL     1       0.922   0.921  13.688  1.00  0.00     0.183 C 
HETATM   13  C   UNL     1       1.013   2.277  12.939  1.00  0.00     0.204 C 
BRANCH  10  14
HETATM   14  C   UNL     1      -2.664   1.794  14.771  1.00  0.00     0.203 C 
BRANCH  14  15
HETATM   15  O   UNL     1      -3.069   3.143  14.852  1.00  0.00    -0.379 OA
BRANCH  15  16
HETATM   16  C   UNL     1      -4.027   3.288  15.876  1.00  0.00     0.281 C 
BRANCH  16  17
HETATM   17  C   UNL     1      -3.562   4.354  16.818  1.00  0.00     0.313 C 
HETATM   18  O   UNL     1      -3.862   4.310  18.000  1.00  0.00    -0.260 OA
BRANCH  17  19
HETATM   19  O   UNL     1      -2.806   5.370  16.359  1.00  0.00    -0.148 OA
HETATM   20 Na   UNL     1      -3.572   6.655  15.007  1.00  0.00     0.000 Na
ENDBRANCH  17  19
ENDBRANCH  16  17
ENDBRANCH  15  16
ENDBRANCH  14  15
ENDBRANCH  10  14
BRANCH  11  21
HETATM   21  O   UNL     1      -0.641  -0.661  14.579  1.00  0.00    -0.348 OA
BRANCH  21  22
HETATM   22  C   UNL     1      -1.962  -1.129  14.780  1.00  0.00     0.292 C 
HETATM   23  O   UNL     1      -2.223  -1.088  16.180  1.00  0.00    -0.351 OA
HETATM   24  C   UNL     1      -3.383  -1.804  16.621  1.00  0.00     0.151 C 
HETATM   25  C   UNL     1      -4.334  -2.212  15.472  1.00  0.00     0.068 C 
HETATM   26  C   UNL     1      -3.589  -3.026  14.385  1.00  0.00     0.154 C 
HETATM   27  C   UNL     1      -2.105  -2.574  14.215  1.00  0.00     0.205 C 
BRANCH  24  28
HETATM   28  C   UNL     1      -4.136  -0.919  17.624  1.00  0.00     0.200 C 
BRANCH  28  29
HETATM   29  O   UNL     1      -5.497  -0.847  17.253  1.00  0.00    -0.379 OA
BRANCH  29  30
HETATM   30  C   UNL     1      -5.924   0.500  17.245  1.00  0.00     0.281 C 
BRANCH  30  31
HETATM   31  C   UNL     1      -7.083   0.645  18.184  1.00  0.00     0.313 C 
HETATM   32  O   UNL     1      -7.866  -0.279  18.344  1.00  0.00    -0.260 OA
BRANCH  31  33
HETATM   33  O   UNL     1      -7.267   1.796  18.859  1.00  0.00    -0.148 OA
HETATM   34 Na   UNL     1      -6.120   3.404  18.472  1.00  0.00     0.000 Na
ENDBRANCH  31  33
ENDBRANCH  30  31
ENDBRANCH  29  30
ENDBRANCH  28  29
ENDBRANCH  24  28
BRANCH  26  35
HETATM   35  O   UNL     1      -3.688  -4.417  14.580  1.00  0.00    -0.393 OA
HETATM   36  H   UNL     1      -4.497  -4.598  15.128  1.00  0.00     0.210 HD
ENDBRANCH  26  35
BRANCH  27  37
HETATM   37  O   UNL     1      -1.200  -3.550  14.873  1.00  0.00    -0.376 OA
BRANCH  37  38
HETATM   38  C   UNL     1      -0.253  -4.262  13.992  1.00  0.00     0.194 C 
BRANCH  38  39
HETATM   39  C   UNL     1      -0.785  -5.655  13.537  1.00  0.00     0.116 C 
BRANCH  39  40
HETATM   40  C   UNL     1       0.209  -6.767  14.072  1.00  0.00     0.053 C 
BRANCH  40  41
HETATM   41  C   UNL     1      -0.001  -7.434  15.480  1.00  0.00     0.094 C 
BRANCH  41  42
HETATM   42  C   UNL     1      -0.806  -8.790  15.285  1.00  0.00     0.051 C 
BRANCH  42  43
HETATM   43  C   UNL     1      -2.350  -8.870  15.009  1.00  0.00     0.094 C 
BRANCH  43  44
HETATM   44  C   UNL     1      -3.088  -7.604  15.551  1.00  0.00     0.051 C 
BRANCH  44  45
HETATM   45  C   UNL     1      -4.186  -7.967  16.581  1.00  0.00     0.094 C 
BRANCH  45  46
HETATM   46  C   UNL     1      -4.526  -9.486  16.731  1.00  0.00     0.051 C 
BRANCH  46  47
HETATM   47  C   UNL     1      -6.000  -9.982  16.628  1.00  0.00     0.089 C 
HETATM   48  C   UNL     1      -6.048 -11.294  15.831  1.00  0.00     0.033 C 
BRANCH  47  49
HETATM   49  N   UNL     1      -6.656 -10.196  17.909  1.00  0.00    -0.334 N 
HETATM   50  C   UNL     1      -7.781 -11.015  18.125  1.00  0.00     0.210 A 
HETATM   51  N   UNL     1      -8.099 -11.056  19.362  1.00  0.00    -0.254 NA
HETATM   52  C   UNL     1      -7.161 -10.247  20.044  1.00  0.00     0.150 A 
HETATM   53  C   UNL     1      -6.284  -9.733  19.187  1.00  0.00     0.082 A 
ENDBRANCH  47  49
ENDBRANCH  46  47
ENDBRANCH  45  46
BRANCH  45  54
HETATM   54  N   UNL     1      -3.834  -7.358  17.893  1.00  0.00    -0.339 N 
HETATM   55  C   UNL     1      -2.919  -7.841  18.766  1.00  0.00     0.209 A 
HETATM   56  N   UNL     1      -2.779  -7.062  19.857  1.00  0.00    -0.254 NA
HETATM   57  C   UNL     1      -3.633  -6.044  19.666  1.00  0.00     0.142 A 
HETATM   58  C   UNL     1      -4.284  -6.217  18.460  1.00  0.00     0.026 A 
HETATM   59  C   UNL     1      -5.303  -5.263  17.922  1.00  0.00     0.070 C 
ENDBRANCH  45  54
ENDBRANCH  44  45
ENDBRANCH  43  44
BRANCH  43  60
HETATM   60  N   UNL     1      -2.642  -8.965  13.567  1.00  0.00    -0.345 N 
HETATM   61  C   UNL     1      -2.114  -9.842  12.689  1.00  0.00     0.209 A 
HETATM   62  N   UNL     1      -2.627  -9.698  11.452  1.00  0.00    -0.255 NA
HETATM   63  C   UNL     1      -3.524  -8.698  11.564  1.00  0.00     0.135 A 
HETATM   64  C   UNL     1      -3.546  -8.253  12.866  1.00  0.00     0.111 A 
ENDBRANCH  43  60
ENDBRANCH  42  43
ENDBRANCH  41  42
BRANCH  41  65
HETATM   65  N   UNL     1       1.201  -7.453  16.342  1.00  0.00    -0.339 N 
HETATM   66  C   UNL     1       1.738  -6.297  16.947  1.00  0.00     0.209 A 
HETATM   67  N   UNL     1       2.945  -6.561  17.608  1.00  0.00    -0.254 NA
HETATM   68  C   UNL     1       3.221  -7.898  17.290  1.00  0.00     0.142 A 
HETATM   69  C   UNL     1       2.257  -8.420  16.528  1.00  0.00     0.026 A 
HETATM   70  C   UNL     1       2.431  -9.793  15.923  1.00  0.00     0.070 C 
ENDBRANCH  41  65
ENDBRANCH  40  41
ENDBRANCH  39  40
BRANCH  39  71
HETATM   71  N   UNL     1      -1.130  -5.708  12.089  1.00  0.00    -0.343 N 
HETATM   72  C   UNL     1      -2.092  -5.035  11.414  1.00  0.00     0.111 A 
HETATM   73  C   UNL     1      -2.066  -5.427  10.096  1.00  0.00     0.135 A 
HETATM   74  N   UNL     1      -1.115  -6.361   9.935  1.00  0.00    -0.255 NA
HETATM   75  C   UNL     1      -0.577  -6.519  11.159  1.00  0.00     0.209 A 
ENDBRANCH  39  71
ENDBRANCH  38  39
ENDBRANCH  37  38
ENDBRANCH  27  37
ENDBRANCH  21  22
ENDBRANCH  11  21
BRANCH  12  76
HETATM   76  O   UNL     1       1.644   0.905  14.901  1.00  0.00    -0.390 OA
HETATM   77  H   UNL     1       2.553   0.544  14.743  1.00  0.00     0.210 HD
ENDBRANCH  12  76
BRANCH  13  78
HETATM   78  O   UNL     1       2.360   2.824  13.047  1.00  0.00    -0.388 OA
HETATM   79  H   UNL     1       2.446   3.590  12.460  1.00  0.00     0.210 HD
ENDBRANCH  13  78
ENDBRANCH   7   8
ENDBRANCH   1   7
BRANCH   2  80
HETATM   80  C   UNL     1       1.765   5.608  16.719  1.00  0.00     0.203 C 
BRANCH  80  81
HETATM   81  O   UNL     1       0.713   4.833  17.264  1.00  0.00    -0.379 OA
BRANCH  81  82
HETATM   82  C   UNL     1       1.192   3.915  18.222  1.00  0.00     0.281 C 
BRANCH  82  83
HETATM   83  C   UNL     1       0.452   2.623  18.052  1.00  0.00     0.313 C 
HETATM   84  O   UNL     1      -0.748   2.575  18.272  1.00  0.00    -0.260 OA
BRANCH  83  85
HETATM   85  O   UNL     1       1.100   1.509  17.659  1.00  0.00    -0.148 OA
HETATM   86 Na   UNL     1       0.123  -0.050  16.839  1.00  0.00     0.000 Na
ENDBRANCH  83  85
ENDBRANCH  82  83
ENDBRANCH  81  82
ENDBRANCH  80  81
ENDBRANCH   2  80
BRANCH   3  87
HETATM   87  O   UNL     1      -1.624   6.404  13.628  1.00  0.00    -0.390 OA
HETATM   88  H   UNL     1      -2.138   5.720  14.130  1.00  0.00     0.210 HD
ENDBRANCH   3  87
BRANCH   4  89
HETATM   89  O   UNL     1       0.839   7.214  12.264  1.00  0.00    -0.376 OA
BRANCH  89  90
HETATM   90  C   UNL     1       0.888   8.259  11.219  1.00  0.00     0.194 C 
BRANCH  90  91
HETATM   91  C   UNL     1      -0.375   8.296  10.263  1.00  0.00     0.116 C 
BRANCH  91  92
HETATM   92  N   UNL     1      -0.305   9.420   9.295  1.00  0.00    -0.343 N 
HETATM   93  C   UNL     1      -1.308   9.959   8.568  1.00  0.00     0.111 A 
HETATM   94  C   UNL     1      -0.794  10.965   7.785  1.00  0.00     0.135 A 
HETATM   95  N   UNL     1       0.529  11.057   7.999  1.00  0.00    -0.255 NA
HETATM   96  C   UNL     1       0.800  10.104   8.914  1.00  0.00     0.209 A 
ENDBRANCH  91  92
BRANCH  91  97
HETATM   97  C   UNL     1      -0.659   6.873   9.635  1.00  0.00     0.053 C 
BRANCH  97  98
HETATM   98  C   UNL     1       0.226   6.255   8.474  1.00  0.00     0.094 C 
BRANCH  98  99
HETATM   99  C   UNL     1       0.232   7.049   7.112  1.00  0.00     0.051 C 
BRANCH  99 100
HETATM  100  C   UNL     1      -0.846   6.651   6.051  1.00  0.00     0.094 C 
BRANCH 100 101
HETATM  101  N   UNL     1      -0.990   5.187   5.936  1.00  0.00    -0.345 N 
HETATM  102  C   UNL     1      -2.109   4.468   6.151  1.00  0.00     0.111 A 
HETATM  103  C   UNL     1      -1.806   3.138   5.972  1.00  0.00     0.135 A 
HETATM  104  N   UNL     1      -0.501   3.019   5.660  1.00  0.00    -0.255 NA
HETATM  105  C   UNL     1      -0.031   4.282   5.651  1.00  0.00     0.209 A 
ENDBRANCH 100 101
BRANCH 100 106
HETATM  106  C   UNL     1      -0.566   7.230   4.621  1.00  0.00     0.051 C 
BRANCH 106 107
HETATM  107  C   UNL     1      -1.160   6.310   3.518  1.00  0.00     0.094 C 
BRANCH 107 108
HETATM  108  C   UNL     1      -2.485   6.790   2.839  1.00  0.00     0.051 C 
BRANCH 108 109
HETATM  109  C   UNL     1      -3.122   5.959   1.682  1.00  0.00     0.089 C 
HETATM  110  C   UNL     1      -4.608   5.708   1.990  1.00  0.00     0.033 C 
BRANCH 109 111
HETATM  111  N   UNL     1      -3.017   6.546   0.356  1.00  0.00    -0.334 N 
HETATM  112  C   UNL     1      -1.994   6.412  -0.602  1.00  0.00     0.082 A 
HETATM  113  C   UNL     1      -2.365   7.145  -1.649  1.00  0.00     0.150 A 
HETATM  114  N   UNL     1      -3.610   7.768  -1.400  1.00  0.00    -0.254 NA
HETATM  115  C   UNL     1      -3.964   7.407  -0.228  1.00  0.00     0.210 A 
ENDBRANCH 109 111
ENDBRANCH 108 109
ENDBRANCH 107 108
BRANCH 107 116
HETATM  116  N   UNL     1      -0.145   5.930   2.536  1.00  0.00    -0.339 N 
HETATM  117  C   UNL     1       0.219   4.616   2.178  1.00  0.00     0.209 A 
HETATM  118  N   UNL     1       1.183   4.636   1.155  1.00  0.00    -0.254 NA
HETATM  119  C   UNL     1       1.389   6.008   0.892  1.00  0.00     0.142 A 
HETATM  120  C   UNL     1       0.623   6.764   1.681  1.00  0.00     0.026 A 
HETATM  121  C   UNL     1       0.610   8.265   1.630  1.00  0.00     0.070 C 
ENDBRANCH 107 116
ENDBRANCH 106 107
ENDBRANCH 100 106
ENDBRANCH  99 100
ENDBRANCH  98  99
BRANCH  98 122
HETATM  122  N   UNL     1       1.484   5.564   8.832  1.00  0.00    -0.339 N 
HETATM  123  C   UNL     1       2.746   5.347   8.194  1.00  0.00     0.026 A 
HETATM  124  C   UNL     1       3.581   4.707   9.015  1.00  0.00     0.142 A 
HETATM  125  C   UNL     1       3.205   5.771   6.849  1.00  0.00     0.070 C 
HETATM  126  N   UNL     1       2.992   4.502  10.271  1.00  0.00    -0.254 NA
HETATM  127  C   UNL     1       1.724   5.088  10.147  1.00  0.00     0.209 A 
ENDBRANCH  98 122
ENDBRANCH  97  98
ENDBRANCH  91  97
ENDBRANCH  90  91
ENDBRANCH  89  90
ENDBRANCH   4  89
BRANCH   5 128
HETATM  128  O   UNL     1       2.467   8.994  14.354  1.00  0.00    -0.348 OA
BRANCH 128 129
HETATM  129  C   UNL     1       1.990  10.118  15.125  1.00  0.00     0.187 C 
HETATM  130  C   UNL     1       2.960  11.333  15.097  1.00  0.00     0.180 C 
HETATM  131  O   UNL     1       2.555  12.302  16.060  1.00  0.00    -0.348 OA
HETATM  132  C   UNL     1       4.400  10.913  15.421  1.00  0.00     0.203 C 
HETATM  133  C   UNL     1       1.253  12.824  15.816  1.00  0.00     0.292 C 
HETATM  134  O   UNL     1       1.297  13.765  14.742  1.00  0.00    -0.348 OA
HETATM  135  C   UNL     1       0.179  11.713  15.634  1.00  0.00     0.204 C 
HETATM  136  C   UNL     1       1.130  15.113  15.198  1.00  0.00     0.187 C 
HETATM  137  C   UNL     1       2.163  16.080  14.520  1.00  0.00     0.176 C 
HETATM  138  C   UNL     1      -0.284  15.632  14.888  1.00  0.00     0.180 C 
HETATM  139  O   UNL     1       1.803  17.471  14.580  1.00  0.00    -0.378 OA
HETATM  140  C   UNL     1       3.584  15.865  15.088  1.00  0.00     0.203 C 
HETATM  141  C   UNL     1       0.936  17.764  15.654  1.00  0.00     0.202 C 
HETATM  142  C   UNL     1      -0.440  17.071  15.479  1.00  0.00     0.173 C 
HETATM  143  O   UNL     1       4.531  16.821  14.641  1.00  0.00    -0.379 OA
HETATM  144  C   UNL     1       4.665  16.830  13.236  1.00  0.00     0.280 C 
HETATM  145  C   UNL     1       6.003  17.402  12.882  1.00  0.00     0.308 C 
HETATM  146  O   UNL     1       6.317  18.513  13.278  1.00  0.00    -0.261 OA
HETATM  147  O   UNL     1       6.860  16.703  12.114  1.00  0.00    -0.158 OA
HETATM  148 Na   UNL     1       6.309  14.935  11.321  1.00  0.00    -0.020 Na
HETATM  149 Na   UNL     1       7.246  12.437  11.289  1.00  0.00     0.080 Na
HETATM  150  O   UNL     1       7.659  13.433  12.993  1.00  0.00    -0.180 OA
HETATM  151  C   UNL     1       6.958  13.181  14.114  1.00  0.00     0.302 C 
HETATM  152  C   UNL     1       5.879  12.140  14.094  1.00  0.00     0.280 C 
HETATM  153  O   UNL     1       7.216  13.798  15.137  1.00  0.00    -0.261 OA
HETATM  154  O   UNL     1       5.280  12.024  15.373  1.00  0.00    -0.379 OA
HETATM  155  C   UNL     1       0.615  10.609  14.647  1.00  0.00     0.183 C 
BRANCH 142 156
HETATM  156  O   UNL     1      -1.378  17.877  14.692  1.00  0.00    -0.391 OA
HETATM  157  H   UNL     1      -2.278  17.535  14.810  1.00  0.00     0.210 HD
ENDBRANCH 142 156
BRANCH 138 158
HETATM  158  O   UNL     1      -0.534  15.571  13.501  1.00  0.00    -0.390 OA
HETATM  159  H   UNL     1      -0.190  16.392  13.067  1.00  0.00     0.210 HD
ENDBRANCH 138 158
BRANCH 135 160
HETATM  160  O   UNL     1      -1.126  12.282  15.298  1.00  0.00    -0.388 OA
HETATM  161  H   UNL     1      -1.164  13.204  15.597  1.00  0.00     0.210 HD
ENDBRANCH 135 160
BRANCH 155 162
HETATM  162  O   UNL     1       0.679  11.110  13.336  1.00  0.00    -0.390 OA
HETATM  163  H   UNL     1       0.877  12.079  13.412  1.00  0.00     0.210 HD
ENDBRANCH 155 162
ENDBRANCH 128 129
ENDBRANCH   5 128
TORSDOF 61
ENDMDL
MODEL 7
REMARK VINA RESULT:      -7.3      5.326      9.825
REMARK WARNING: 32 MAX_TORS EXCEEDED!!!
REMARK  61 active torsions:
REMARK  status: ('A' for Active; 'I' for Inactive)
REMARK    1  A    between atoms: C_1  and  O_30 
REMARK    2  A    between atoms: C_2  and  C_6 
REMARK    3  A    between atoms: C_3  and  O_9 
REMARK    4  A    between atoms: C_4  and  O_11 
REMARK    5  A    between atoms: C_5  and  O_12 
REMARK    6  A    between atoms: C_6  and  O_7 
REMARK    7  A    between atoms: O_7  and  C_147 
REMARK    8  A    between atoms: O_11  and  C_107 
REMARK    9  A    between atoms: O_12  and  C_20 
REMARK   10  A    between atoms: O_14  and  C_18 
REMARK   11  A    between atoms: O_21  and  C_24 
REMARK   12  A    between atoms: O_26  and  C_29 
REMARK   13  A    between atoms: C_28  and  C_34 
REMARK   14  A    between atoms: O_30  and  C_33 
REMARK   15  A    between atoms: C_31  and  O_53 
REMARK   16  A    between atoms: O_32  and  C_35 
REMARK   17  A    between atoms: C_34  and  O_59 
REMARK   18  A    between atoms: O_37  and  C_41 
REMARK   19  A    between atoms: O_43  and  C_46 
REMARK   20  A    between atoms: O_48  and  C_52 
REMARK   21  A    between atoms: C_50  and  C_57 
REMARK   22  A    between atoms: O_51  and  C_57 
REMARK   23  A    between atoms: O_51  and  C_60 
REMARK   24  A    between atoms: O_53  and  C_56 
REMARK   25  A    between atoms: O_55  and  C_58 
REMARK   26  A    between atoms: O_55  and  C_61 
REMARK   27  A    between atoms: O_59  and  C_142 
REMARK   28  A    between atoms: C_60  and  C_137 
REMARK   29  A    between atoms: C_61  and  C_62 
REMARK   30  A    between atoms: C_62  and  C_63 
REMARK   31  A    between atoms: C_62  and  N_76 
REMARK   32  A    between atoms: C_63  and  C_64 
REMARK   33  A    between atoms: C_64  and  C_65 
REMARK   34  A    between atoms: C_64  and  N_90 
REMARK   35  A    between atoms: C_65  and  C_66 
REMARK   36  A    between atoms: C_66  and  C_67 
REMARK   37  A    between atoms: C_66  and  N_80 
REMARK   38  A    between atoms: C_67  and  C_68 
REMARK   39  A    between atoms: C_68  and  C_69 
REMARK   40  A    between atoms: C_68  and  N_95 
REMARK   41  A    between atoms: C_69  and  C_70 
REMARK   42  A    between atoms: C_70  and  N_85 
REMARK   43  A    between atoms: N_102  and  C_108 
REMARK   44  A    between atoms: C_107  and  C_108 
REMARK   45  A    between atoms: C_108  and  C_115 
REMARK   46  A    between atoms: N_111  and  C_117 
REMARK   47  A    between atoms: C_113  and  C_117 
REMARK   48  A    between atoms: C_113  and  C_119 
REMARK   49  A    between atoms: N_114  and  C_124 
REMARK   50  A    between atoms: C_115  and  C_119 
REMARK   51  A    between atoms: C_117  and  C_121 
REMARK   52  A    between atoms: N_118  and  C_119 
REMARK   53  A    between atoms: C_121  and  C_126 
REMARK   54  A    between atoms: C_124  and  C_125 
REMARK   55  A    between atoms: C_125  and  C_126 
REMARK   56  A    between atoms: C_126  and  N_129 
REMARK   57  A    between atoms: C_137  and  O_139 
REMARK   58  A    between atoms: C_142  and  C_144 
REMARK   59  A    between atoms: O_143  and  C_144 
REMARK   60  A    between atoms: C_147  and  C_149 
REMARK   61  A    between atoms: O_148  and  C_149 
ROOT
HETATM    1  C   UNL     1       1.091   2.852  13.666  1.00  0.00     0.187 C 
HETATM    2  C   UNL     1       1.037   3.259  12.150  1.00  0.00     0.180 C 
HETATM    3  C   UNL     1       0.767   4.041  14.602  1.00  0.00     0.183 C 
HETATM    4  C   UNL     1      -0.489   4.820  14.103  1.00  0.00     0.208 C 
HETATM    5  C   UNL     1      -0.093   5.263  12.672  1.00  0.00     0.292 C 
HETATM    6  O   UNL     1      -0.067   4.123  11.825  1.00  0.00    -0.348 OA
ENDROOT
BRANCH   1   7
HETATM    7  O   UNL     1       0.156   1.817  13.916  1.00  0.00    -0.348 OA
BRANCH   7   8
HETATM    8  C   UNL     1       0.675   0.756  14.722  1.00  0.00     0.292 C 
HETATM    9  O   UNL     1       1.976   1.111  15.146  1.00  0.00    -0.348 OA
HETATM   10  C   UNL     1       2.574   0.153  16.030  1.00  0.00     0.180 C 
HETATM   11  C   UNL     1       2.139  -1.331  15.785  1.00  0.00     0.187 C 
HETATM   12  C   UNL     1       1.849  -1.502  14.295  1.00  0.00     0.183 C 
HETATM   13  C   UNL     1       0.659  -0.581  13.916  1.00  0.00     0.204 C 
BRANCH  10  14
HETATM   14  C   UNL     1       2.386   0.562  17.497  1.00  0.00     0.203 C 
BRANCH  14  15
HETATM   15  O   UNL     1       2.576   1.954  17.620  1.00  0.00    -0.379 OA
BRANCH  15  16
HETATM   16  C   UNL     1       1.756   2.454  18.654  1.00  0.00     0.281 C 
BRANCH  16  17
HETATM   17  C   UNL     1       2.630   3.067  19.702  1.00  0.00     0.313 C 
HETATM   18  O   UNL     1       3.177   2.367  20.539  1.00  0.00    -0.260 OA
BRANCH  17  19
HETATM   19  O   UNL     1       2.815   4.401  19.723  1.00  0.00    -0.148 OA
HETATM   20 Na   UNL     1       1.735   5.541  20.986  1.00  0.00     0.000 Na
ENDBRANCH  17  19
ENDBRANCH  16  17
ENDBRANCH  15  16
ENDBRANCH  14  15
ENDBRANCH  10  14
BRANCH  11  21
HETATM   21  O   UNL     1       3.193  -2.211  16.148  1.00  0.00    -0.348 OA
BRANCH  21  22
HETATM   22  C   UNL     1       2.997  -2.897  17.370  1.00  0.00     0.292 C 
HETATM   23  O   UNL     1       4.112  -3.765  17.558  1.00  0.00    -0.351 OA
HETATM   24  C   UNL     1       3.960  -4.766  18.572  1.00  0.00     0.151 C 
HETATM   25  C   UNL     1       2.757  -4.521  19.512  1.00  0.00     0.068 C 
HETATM   26  C   UNL     1       1.438  -4.370  18.712  1.00  0.00     0.154 C 
HETATM   27  C   UNL     1       1.657  -3.690  17.324  1.00  0.00     0.205 C 
BRANCH  24  28
HETATM   28  C   UNL     1       5.255  -4.811  19.394  1.00  0.00     0.200 C 
BRANCH  28  29
HETATM   29  O   UNL     1       6.135  -3.806  18.933  1.00  0.00    -0.379 OA
BRANCH  29  30
HETATM   30  C   UNL     1       7.224  -3.674  19.824  1.00  0.00     0.281 C 
BRANCH  30  31
HETATM   31  C   UNL     1       8.181  -4.803  19.588  1.00  0.00     0.313 C 
HETATM   32  O   UNL     1       8.617  -5.448  20.529  1.00  0.00    -0.260 OA
BRANCH  31  33
HETATM   33  O   UNL     1       8.565  -5.113  18.335  1.00  0.00    -0.148 OA
HETATM   34 Na   UNL     1       7.617  -6.559  17.302  1.00  0.00     0.000 Na
ENDBRANCH  31  33
ENDBRANCH  30  31
ENDBRANCH  29  30
ENDBRANCH  28  29
ENDBRANCH  24  28
BRANCH  26  35
HETATM   35  O   UNL     1       0.732  -5.582  18.590  1.00  0.00    -0.393 OA
HETATM   36  H   UNL     1       0.432  -5.673  17.647  1.00  0.00     0.210 HD
ENDBRANCH  26  35
BRANCH  27  37
HETATM   37  O   UNL     1       1.622  -4.713  16.249  1.00  0.00    -0.376 OA
BRANCH  37  38
HETATM   38  C   UNL     1       0.774  -4.405  15.079  1.00  0.00     0.194 C 
BRANCH  38  39
HETATM   39  C   UNL     1      -0.518  -5.277  15.026  1.00  0.00     0.116 C 
BRANCH  39  40
HETATM   40  C   UNL     1      -0.194  -6.596  14.210  1.00  0.00     0.053 C 
BRANCH  40  41
HETATM   41  C   UNL     1      -0.985  -7.928  14.473  1.00  0.00     0.094 C 
BRANCH  41  42
HETATM   42  C   UNL     1      -0.542  -9.004  13.391  1.00  0.00     0.051 C 
BRANCH  42  43
HETATM   43  C   UNL     1      -0.959  -8.960  11.878  1.00  0.00     0.094 C 
BRANCH  43  44
HETATM   44  C   UNL     1      -0.100  -9.948  11.025  1.00  0.00     0.051 C 
BRANCH  44  45
HETATM   45  C   UNL     1       0.568  -9.246   9.817  1.00  0.00     0.094 C 
BRANCH  45  46
HETATM   46  C   UNL     1       0.735  -7.695   9.919  1.00  0.00     0.051 C 
BRANCH  46  47
HETATM   47  C   UNL     1      -0.005  -6.751   8.923  1.00  0.00     0.089 C 
HETATM   48  C   UNL     1      -0.549  -7.572   7.742  1.00  0.00     0.033 C 
BRANCH  47  49
HETATM   49  N   UNL     1      -1.105  -5.999   9.505  1.00  0.00    -0.334 N 
HETATM   50  C   UNL     1      -2.244  -5.545   8.814  1.00  0.00     0.210 A 
HETATM   51  N   UNL     1      -3.068  -4.964   9.598  1.00  0.00    -0.254 NA
HETATM   52  C   UNL     1      -2.497  -5.018  10.891  1.00  0.00     0.150 A 
HETATM   53  C   UNL     1      -1.324  -5.644  10.852  1.00  0.00     0.082 A 
ENDBRANCH  47  49
ENDBRANCH  46  47
ENDBRANCH  45  46
BRANCH  45  54
HETATM   54  N   UNL     1       1.868  -9.913   9.532  1.00  0.00    -0.339 N 
HETATM   55  C   UNL     1       2.536 -10.730  10.379  1.00  0.00     0.209 A 
HETATM   56  N   UNL     1       3.668 -11.225   9.839  1.00  0.00    -0.254 NA
HETATM   57  C   UNL     1       3.716 -10.705   8.602  1.00  0.00     0.142 A 
HETATM   58  C   UNL     1       2.612  -9.900   8.404  1.00  0.00     0.026 A 
HETATM   59  C   UNL     1       2.336  -9.166   7.129  1.00  0.00     0.070 C 
ENDBRANCH  45  54
ENDBRANCH  44  45
ENDBRANCH  43  44
BRANCH  43  60
HETATM   60  N   UNL     1      -2.372  -9.334  11.691  1.00  0.00    -0.345 N 
HETATM   61  C   UNL     1      -3.208  -8.889  10.729  1.00  0.00     0.209 A 
HETATM   62  N   UNL     1      -4.424  -9.463  10.804  1.00  0.00    -0.255 NA
HETATM   63  C   UNL     1      -4.342 -10.313  11.846  1.00  0.00     0.135 A 
HETATM   64  C   UNL     1      -3.078 -10.247  12.387  1.00  0.00     0.111 A 
ENDBRANCH  43  60
ENDBRANCH  42  43
ENDBRANCH  41  42
BRANCH  41  65
HETATM   65  N   UNL     1      -1.041  -8.346  15.891  1.00  0.00    -0.339 N 
HETATM   66  C   UNL     1      -2.185  -8.183  16.701  1.00  0.00     0.209 A 
HETATM   67  N   UNL     1      -1.942  -8.541  18.034  1.00  0.00    -0.254 NA
HETATM   68  C   UNL     1      -0.567  -8.813  18.067  1.00  0.00     0.142 A 
HETATM   69  C   UNL     1      -0.018  -8.665  16.859  1.00  0.00     0.026 A 
HETATM   70  C   UNL     1       1.481  -8.737  16.696  1.00  0.00     0.070 C 
ENDBRANCH  41  65
ENDBRANCH  40  41
ENDBRANCH  39  40
BRANCH  39  71
HETATM   71  N   UNL     1      -1.726  -4.512  14.610  1.00  0.00    -0.343 N 
HETATM   72  C   UNL     1      -1.808  -3.362  13.899  1.00  0.00     0.111 A 
HETATM   73  C   UNL     1      -3.131  -3.005  13.783  1.00  0.00     0.135 A 
HETATM   74  N   UNL     1      -3.887  -3.903  14.436  1.00  0.00    -0.255 NA
HETATM   75  C   UNL     1      -3.009  -4.793  14.936  1.00  0.00     0.209 A 
ENDBRANCH  39  71
ENDBRANCH  38  39
ENDBRANCH  37  38
ENDBRANCH  27  37
ENDBRANCH  21  22
ENDBRANCH  11  21
BRANCH  12  76
HETATM   76  O   UNL     1       3.012  -1.250  13.535  1.00  0.00    -0.390 OA
HETATM   77  H   UNL     1       3.617  -2.034  13.583  1.00  0.00     0.210 HD
ENDBRANCH  12  76
BRANCH  13  78
HETATM   78  O   UNL     1       0.614  -0.383  12.473  1.00  0.00    -0.388 OA
HETATM   79  H   UNL     1       1.514  -0.428  12.112  1.00  0.00     0.210 HD
ENDBRANCH  13  78
ENDBRANCH   7   8
ENDBRANCH   1   7
BRANCH   2  80
HETATM   80  C   UNL     1       2.390   3.811  11.628  1.00  0.00     0.203 C 
BRANCH  80  81
HETATM   81  O   UNL     1       3.401   3.651  12.604  1.00  0.00    -0.379 OA
BRANCH  81  82
HETATM   82  C   UNL     1       4.431   4.601  12.442  1.00  0.00     0.281 C 
BRANCH  82  83
HETATM   83  C   UNL     1       4.002   5.881  13.090  1.00  0.00     0.313 C 
HETATM   84  O   UNL     1       4.067   6.930  12.468  1.00  0.00    -0.260 OA
BRANCH  83  85
HETATM   85  O   UNL     1       3.544   5.889  14.357  1.00  0.00    -0.148 OA
HETATM   86 Na   UNL     1       1.871   6.886  14.873  1.00  0.00     0.000 Na
ENDBRANCH  83  85
ENDBRANCH  82  83
ENDBRANCH  81  82
ENDBRANCH  80  81
ENDBRANCH   2  80
BRANCH   3  87
HETATM   87  O   UNL     1       0.609   3.591  15.923  1.00  0.00    -0.390 OA
HETATM   88  H   UNL     1      -0.351   3.695  16.148  1.00  0.00     0.210 HD
ENDBRANCH   3  87
BRANCH   4  89
HETATM   89  O   UNL     1      -1.709   3.958  14.169  1.00  0.00    -0.376 OA
BRANCH  89  90
HETATM   90  C   UNL     1      -2.866   4.526  14.896  1.00  0.00     0.194 C 
BRANCH  90  91
HETATM   91  C   UNL     1      -2.864   4.251  16.456  1.00  0.00     0.116 C 
BRANCH  91  92
HETATM   92  N   UNL     1      -2.539   5.473  17.234  1.00  0.00    -0.343 N 
HETATM   93  C   UNL     1      -1.331   6.052  17.414  1.00  0.00     0.111 A 
HETATM   94  C   UNL     1      -1.485   7.152  18.222  1.00  0.00     0.135 A 
HETATM   95  N   UNL     1      -2.779   7.266  18.569  1.00  0.00    -0.255 NA
HETATM   96  C   UNL     1      -3.393   6.231  17.961  1.00  0.00     0.209 A 
ENDBRANCH  91  92
BRANCH  91  97
HETATM   97  C   UNL     1      -4.175   3.487  16.903  1.00  0.00     0.053 C 
BRANCH  97  98
HETATM   98  C   UNL     1      -4.153   2.247  17.889  1.00  0.00     0.094 C 
BRANCH  98  99
HETATM   99  C   UNL     1      -4.497   2.555  19.395  1.00  0.00     0.051 C 
BRANCH  99 100
HETATM  100  C   UNL     1      -3.413   2.190  20.462  1.00  0.00     0.094 C 
BRANCH 100 101
HETATM  101  N   UNL     1      -2.515   3.326  20.744  1.00  0.00    -0.345 N 
HETATM  102  C   UNL     1      -2.837   4.469  21.381  1.00  0.00     0.111 A 
HETATM  103  C   UNL     1      -1.724   5.278  21.402  1.00  0.00     0.135 A 
HETATM  104  N   UNL     1      -0.711   4.654  20.769  1.00  0.00    -0.255 NA
HETATM  105  C   UNL     1      -1.225   3.472  20.375  1.00  0.00     0.209 A 
ENDBRANCH 100 101
BRANCH 100 106
HETATM  106  C   UNL     1      -2.532   0.955  20.067  1.00  0.00     0.051 C 
BRANCH 106 107
HETATM  107  C   UNL     1      -2.501  -0.099  21.210  1.00  0.00     0.094 C 
BRANCH 107 108
HETATM  108  C   UNL     1      -2.459  -1.602  20.780  1.00  0.00     0.051 C 
BRANCH 108 109
HETATM  109  C   UNL     1      -2.963  -2.031  19.367  1.00  0.00     0.089 C 
HETATM  110  C   UNL     1      -1.760  -2.424  18.492  1.00  0.00     0.033 C 
BRANCH 109 111
HETATM  111  N   UNL     1      -3.925  -3.120  19.347  1.00  0.00    -0.334 N 
HETATM  112  C   UNL     1      -3.998  -4.232  18.487  1.00  0.00     0.082 A 
HETATM  113  C   UNL     1      -5.059  -4.936  18.876  1.00  0.00     0.150 A 
HETATM  114  N   UNL     1      -5.694  -4.308  19.972  1.00  0.00    -0.254 NA
HETATM  115  C   UNL     1      -5.019  -3.255  20.223  1.00  0.00     0.210 A 
ENDBRANCH 109 111
ENDBRANCH 108 109
ENDBRANCH 107 108
BRANCH 107 116
HETATM  116  N   UNL     1      -1.473   0.218  22.202  1.00  0.00    -0.339 N 
HETATM  117  C   UNL     1      -1.695   0.629  23.531  1.00  0.00     0.209 A 
HETATM  118  N   UNL     1      -0.472   0.781  24.208  1.00  0.00    -0.254 NA
HETATM  119  C   UNL     1       0.505   0.438  23.249  1.00  0.00     0.142 A 
HETATM  120  C   UNL     1      -0.062   0.106  22.088  1.00  0.00     0.026 A 
HETATM  121  C   UNL     1       0.719  -0.317  20.876  1.00  0.00     0.070 C 
ENDBRANCH 107 116
ENDBRANCH 106 107
ENDBRANCH 100 106
ENDBRANCH  99 100
ENDBRANCH  98  99
BRANCH  98 122
HETATM  122  N   UNL     1      -4.584   0.927  17.377  1.00  0.00    -0.339 N 
HETATM  123  C   UNL     1      -4.083  -0.007  16.415  1.00  0.00     0.026 A 
HETATM  124  C   UNL     1      -4.836  -1.108  16.398  1.00  0.00     0.142 A 
HETATM  125  C   UNL     1      -2.884   0.089  15.548  1.00  0.00     0.070 C 
HETATM  126  N   UNL     1      -5.845  -1.043  17.370  1.00  0.00    -0.254 NA
HETATM  127  C   UNL     1      -5.630   0.195  17.994  1.00  0.00     0.209 A 
ENDBRANCH  98 122
ENDBRANCH  97  98
ENDBRANCH  91  97
ENDBRANCH  90  91
ENDBRANCH  89  90
ENDBRANCH   4  89
BRANCH   5 128
HETATM  128  O   UNL     1      -0.933   6.308  12.153  1.00  0.00    -0.348 OA
BRANCH 128 129
HETATM  129  C   UNL     1      -1.017   7.416  13.076  1.00  0.00     0.187 C 
HETATM  130  C   UNL     1      -0.852   8.799  12.384  1.00  0.00     0.180 C 
HETATM  131  O   UNL     1      -0.702   9.820  13.367  1.00  0.00    -0.348 OA
HETATM  132  C   UNL     1       0.382   8.831  11.472  1.00  0.00     0.203 C 
HETATM  133  C   UNL     1      -1.826   9.936  14.231  1.00  0.00     0.292 C 
HETATM  134  O   UNL     1      -2.893  10.605  13.558  1.00  0.00    -0.348 OA
HETATM  135  C   UNL     1      -2.241   8.580  14.873  1.00  0.00     0.204 C 
HETATM  136  C   UNL     1      -3.096  11.934  14.053  1.00  0.00     0.187 C 
HETATM  137  C   UNL     1      -3.290  12.960  12.881  1.00  0.00     0.176 C 
HETATM  138  C   UNL     1      -4.336  12.006  14.960  1.00  0.00     0.180 C 
HETATM  139  O   UNL     1      -3.911  14.197  13.271  1.00  0.00    -0.378 OA
HETATM  140  C   UNL     1      -1.955  13.233  12.152  1.00  0.00     0.203 C 
HETATM  141  C   UNL     1      -3.736  14.487  14.640  1.00  0.00     0.202 C 
HETATM  142  C   UNL     1      -4.462  13.452  15.539  1.00  0.00     0.173 C 
HETATM  143  O   UNL     1      -2.027  14.276  11.195  1.00  0.00    -0.379 OA
HETATM  144  C   UNL     1      -2.981  14.017  10.187  1.00  0.00     0.280 C 
HETATM  145  C   UNL     1      -2.627  14.815   8.970  1.00  0.00     0.308 C 
HETATM  146  O   UNL     1      -2.510  16.027   9.047  1.00  0.00    -0.261 OA
HETATM  147  O   UNL     1      -2.453  14.204   7.783  1.00  0.00    -0.158 OA
HETATM  148 Na   UNL     1      -2.790  12.227   7.595  1.00  0.00    -0.020 Na
HETATM  149 Na   UNL     1      -1.445  10.094   6.722  1.00  0.00     0.080 Na
HETATM  150  O   UNL     1      -0.270  11.503   7.560  1.00  0.00    -0.180 OA
HETATM  151  C   UNL     1       0.215  11.330   8.804  1.00  0.00     0.302 C 
HETATM  152  C   UNL     1      -0.106  10.074   9.556  1.00  0.00     0.280 C 
HETATM  153  O   UNL     1       0.919  12.196   9.301  1.00  0.00    -0.261 OA
HETATM  154  O   UNL     1       0.512  10.089  10.832  1.00  0.00    -0.379 OA
HETATM  155  C   UNL     1      -2.347   7.434  13.843  1.00  0.00     0.183 C 
BRANCH 142 156
HETATM  156  O   UNL     1      -5.861  13.811  15.791  1.00  0.00    -0.391 OA
HETATM  157  H   UNL     1      -6.088  13.602  16.710  1.00  0.00     0.210 HD
ENDBRANCH 142 156
BRANCH 138 158
HETATM  158  O   UNL     1      -5.483  11.588  14.252  1.00  0.00    -0.390 OA
HETATM  159  H   UNL     1      -5.278  11.552  13.284  1.00  0.00     0.210 HD
ENDBRANCH 138 158
BRANCH 135 160
HETATM  160  O   UNL     1      -3.452   8.720  15.682  1.00  0.00    -0.388 OA
HETATM  161  H   UNL     1      -4.156   9.114  15.144  1.00  0.00     0.210 HD
ENDBRANCH 135 160
BRANCH 155 162
HETATM  162  O   UNL     1      -3.433   7.643  12.976  1.00  0.00    -0.390 OA
HETATM  163  H   UNL     1      -3.095   8.194  12.224  1.00  0.00     0.210 HD
ENDBRANCH 155 162
ENDBRANCH 128 129
ENDBRANCH   5 128
TORSDOF 61
ENDMDL
MODEL 8
REMARK VINA RESULT:      -7.2      2.931      6.174
REMARK WARNING: 32 MAX_TORS EXCEEDED!!!
REMARK  61 active torsions:
REMARK  status: ('A' for Active; 'I' for Inactive)
REMARK    1  A    between atoms: C_1  and  O_30 
REMARK    2  A    between atoms: C_2  and  C_6 
REMARK    3  A    between atoms: C_3  and  O_9 
REMARK    4  A    between atoms: C_4  and  O_11 
REMARK    5  A    between atoms: C_5  and  O_12 
REMARK    6  A    between atoms: C_6  and  O_7 
REMARK    7  A    between atoms: O_7  and  C_147 
REMARK    8  A    between atoms: O_11  and  C_107 
REMARK    9  A    between atoms: O_12  and  C_20 
REMARK   10  A    between atoms: O_14  and  C_18 
REMARK   11  A    between atoms: O_21  and  C_24 
REMARK   12  A    between atoms: O_26  and  C_29 
REMARK   13  A    between atoms: C_28  and  C_34 
REMARK   14  A    between atoms: O_30  and  C_33 
REMARK   15  A    between atoms: C_31  and  O_53 
REMARK   16  A    between atoms: O_32  and  C_35 
REMARK   17  A    between atoms: C_34  and  O_59 
REMARK   18  A    between atoms: O_37  and  C_41 
REMARK   19  A    between atoms: O_43  and  C_46 
REMARK   20  A    between atoms: O_48  and  C_52 
REMARK   21  A    between atoms: C_50  and  C_57 
REMARK   22  A    between atoms: O_51  and  C_57 
REMARK   23  A    between atoms: O_51  and  C_60 
REMARK   24  A    between atoms: O_53  and  C_56 
REMARK   25  A    between atoms: O_55  and  C_58 
REMARK   26  A    between atoms: O_55  and  C_61 
REMARK   27  A    between atoms: O_59  and  C_142 
REMARK   28  A    between atoms: C_60  and  C_137 
REMARK   29  A    between atoms: C_61  and  C_62 
REMARK   30  A    between atoms: C_62  and  C_63 
REMARK   31  A    between atoms: C_62  and  N_76 
REMARK   32  A    between atoms: C_63  and  C_64 
REMARK   33  A    between atoms: C_64  and  C_65 
REMARK   34  A    between atoms: C_64  and  N_90 
REMARK   35  A    between atoms: C_65  and  C_66 
REMARK   36  A    between atoms: C_66  and  C_67 
REMARK   37  A    between atoms: C_66  and  N_80 
REMARK   38  A    between atoms: C_67  and  C_68 
REMARK   39  A    between atoms: C_68  and  C_69 
REMARK   40  A    between atoms: C_68  and  N_95 
REMARK   41  A    between atoms: C_69  and  C_70 
REMARK   42  A    between atoms: C_70  and  N_85 
REMARK   43  A    between atoms: N_102  and  C_108 
REMARK   44  A    between atoms: C_107  and  C_108 
REMARK   45  A    between atoms: C_108  and  C_115 
REMARK   46  A    between atoms: N_111  and  C_117 
REMARK   47  A    between atoms: C_113  and  C_117 
REMARK   48  A    between atoms: C_113  and  C_119 
REMARK   49  A    between atoms: N_114  and  C_124 
REMARK   50  A    between atoms: C_115  and  C_119 
REMARK   51  A    between atoms: C_117  and  C_121 
REMARK   52  A    between atoms: N_118  and  C_119 
REMARK   53  A    between atoms: C_121  and  C_126 
REMARK   54  A    between atoms: C_124  and  C_125 
REMARK   55  A    between atoms: C_125  and  C_126 
REMARK   56  A    between atoms: C_126  and  N_129 
REMARK   57  A    between atoms: C_137  and  O_139 
REMARK   58  A    between atoms: C_142  and  C_144 
REMARK   59  A    between atoms: O_143  and  C_144 
REMARK   60  A    between atoms: C_147  and  C_149 
REMARK   61  A    between atoms: O_148  and  C_149 
ROOT
HETATM    1  C   UNL     1       0.391   6.156  13.803  1.00  0.00     0.187 C 
HETATM    2  C   UNL     1       1.356   7.126  14.574  1.00  0.00     0.180 C 
HETATM    3  C   UNL     1      -0.804   6.905  13.164  1.00  0.00     0.183 C 
HETATM    4  C   UNL     1      -0.324   8.192  12.424  1.00  0.00     0.208 C 
HETATM    5  C   UNL     1       0.379   9.007  13.538  1.00  0.00     0.292 C 
HETATM    6  O   UNL     1       1.598   8.364  13.883  1.00  0.00    -0.348 OA
ENDROOT
BRANCH   1   7
HETATM    7  O   UNL     1       1.104   5.490  12.775  1.00  0.00    -0.348 OA
BRANCH   7   8
HETATM    8  C   UNL     1       1.186   4.074  12.959  1.00  0.00     0.292 C 
HETATM    9  O   UNL     1       0.523   3.738  14.160  1.00  0.00    -0.348 OA
HETATM   10  C   UNL     1       0.472   2.327  14.415  1.00  0.00     0.180 C 
HETATM   11  C   UNL     1       1.693   1.515  13.867  1.00  0.00     0.187 C 
HETATM   12  C   UNL     1       2.923   2.419  13.908  1.00  0.00     0.183 C 
HETATM   13  C   UNL     1       2.681   3.624  12.962  1.00  0.00     0.204 C 
BRANCH  10  14
HETATM   14  C   UNL     1      -0.861   1.729  13.947  1.00  0.00     0.203 C 
BRANCH  14  15
HETATM   15  O   UNL     1      -1.925   2.425  14.559  1.00  0.00    -0.379 OA
BRANCH  15  16
HETATM   16  C   UNL     1      -2.912   1.509  14.976  1.00  0.00     0.281 C 
BRANCH  16  17
HETATM   17  C   UNL     1      -3.799   2.184  15.975  1.00  0.00     0.313 C 
HETATM   18  O   UNL     1      -5.007   2.013  15.946  1.00  0.00    -0.260 OA
BRANCH  17  19
HETATM   19  O   UNL     1      -3.261   2.988  16.913  1.00  0.00    -0.148 OA
HETATM   20 Na   UNL     1      -1.273   3.316  16.928  1.00  0.00     0.000 Na
ENDBRANCH  17  19
ENDBRANCH  16  17
ENDBRANCH  15  16
ENDBRANCH  14  15
ENDBRANCH  10  14
BRANCH  11  21
HETATM   21  O   UNL     1       1.930   0.383  14.691  1.00  0.00    -0.348 OA
BRANCH  21  22
HETATM   22  C   UNL     1       1.296   0.428  15.956  1.00  0.00     0.292 C 
HETATM   23  O   UNL     1       2.319   0.486  16.946  1.00  0.00    -0.351 OA
HETATM   24  C   UNL     1       1.901   0.229  18.292  1.00  0.00     0.151 C 
HETATM   25  C   UNL     1       0.367   0.266  18.484  1.00  0.00     0.068 C 
HETATM   26  C   UNL     1      -0.347  -0.705  17.511  1.00  0.00     0.154 C 
HETATM   27  C   UNL     1       0.393  -0.827  16.141  1.00  0.00     0.205 C 
BRANCH  24  28
HETATM   28  C   UNL     1       2.560   1.274  19.203  1.00  0.00     0.200 C 
BRANCH  28  29
HETATM   29  O   UNL     1       1.581   2.192  19.644  1.00  0.00    -0.379 OA
BRANCH  29  30
HETATM   30  C   UNL     1       1.934   3.501  19.245  1.00  0.00     0.281 C 
BRANCH  30  31
HETATM   31  C   UNL     1       0.800   4.427  19.568  1.00  0.00     0.313 C 
HETATM   32  O   UNL     1      -0.225   4.400  18.905  1.00  0.00    -0.260 OA
BRANCH  31  33
HETATM   33  O   UNL     1       0.906   5.293  20.594  1.00  0.00    -0.148 OA
HETATM   34 Na   UNL     1      -0.603   5.512  21.909  1.00  0.00     0.000 Na
ENDBRANCH  31  33
ENDBRANCH  30  31
ENDBRANCH  29  30
ENDBRANCH  28  29
ENDBRANCH  24  28
BRANCH  26  35
HETATM   35  O   UNL     1      -0.591  -1.969  18.082  1.00  0.00    -0.393 OA
HETATM   36  H   UNL     1      -0.767  -1.843  19.052  1.00  0.00     0.210 HD
ENDBRANCH  26  35
BRANCH  27  37
HETATM   37  O   UNL     1       1.149  -2.104  16.087  1.00  0.00    -0.376 OA
BRANCH  37  38
HETATM   38  C   UNL     1       0.867  -2.984  14.935  1.00  0.00     0.194 C 
BRANCH  38  39
HETATM   39  C   UNL     1      -0.260  -4.020  15.232  1.00  0.00     0.116 C 
BRANCH  39  40
HETATM   40  C   UNL     1       0.234  -5.445  14.746  1.00  0.00     0.053 C 
BRANCH  40  41
HETATM   41  C   UNL     1       0.031  -6.723  15.639  1.00  0.00     0.094 C 
BRANCH  41  42
HETATM   42  C   UNL     1      -0.763  -7.811  14.795  1.00  0.00     0.051 C 
BRANCH  42  43
HETATM   43  C   UNL     1      -2.325  -7.967  14.801  1.00  0.00     0.094 C 
BRANCH  43  44
HETATM   44  C   UNL     1      -3.017  -6.714  15.429  1.00  0.00     0.051 C 
BRANCH  44  45
HETATM   45  C   UNL     1      -3.648  -7.028  16.808  1.00  0.00     0.094 C 
BRANCH  45  46
HETATM   46  C   UNL     1      -3.342  -8.439  17.409  1.00  0.00     0.051 C 
BRANCH  46  47
HETATM   47  C   UNL     1      -4.486  -9.477  17.615  1.00  0.00     0.089 C 
HETATM   48  C   UNL     1      -5.848  -8.773  17.508  1.00  0.00     0.033 C 
BRANCH  47  49
HETATM   49  N   UNL     1      -4.469 -10.590  16.678  1.00  0.00    -0.334 N 
HETATM   50  C   UNL     1      -3.533 -11.641  16.673  1.00  0.00     0.210 A 
HETATM   51  N   UNL     1      -3.803 -12.504  15.771  1.00  0.00    -0.254 NA
HETATM   52  C   UNL     1      -4.977 -12.054  15.124  1.00  0.00     0.150 A 
HETATM   53  C   UNL     1      -5.393 -10.912  15.664  1.00  0.00     0.082 A 
ENDBRANCH  47  49
ENDBRANCH  46  47
ENDBRANCH  45  46
BRANCH  45  54
HETATM   54  N   UNL     1      -3.286  -5.943  17.760  1.00  0.00    -0.339 N 
HETATM   55  C   UNL     1      -2.062  -5.750  18.306  1.00  0.00     0.209 A 
HETATM   56  N   UNL     1      -2.014  -4.664  19.104  1.00  0.00    -0.254 NA
HETATM   57  C   UNL     1      -3.252  -4.147  19.057  1.00  0.00     0.142 A 
HETATM   58  C   UNL     1      -4.039  -4.925  18.232  1.00  0.00     0.026 A 
HETATM   59  C   UNL     1      -5.479  -4.636  17.942  1.00  0.00     0.070 C 
ENDBRANCH  45  54
ENDBRANCH  44  45
ENDBRANCH  43  44
BRANCH  43  60
HETATM   60  N   UNL     1      -2.863  -8.127  13.437  1.00  0.00    -0.345 N 
HETATM   61  C   UNL     1      -2.554  -7.386  12.353  1.00  0.00     0.209 A 
HETATM   62  N   UNL     1      -3.182  -7.821  11.243  1.00  0.00    -0.255 NA
HETATM   63  C   UNL     1      -3.901  -8.886  11.647  1.00  0.00     0.135 A 
HETATM   64  C   UNL     1      -3.698  -9.086  12.993  1.00  0.00     0.111 A 
ENDBRANCH  43  60
ENDBRANCH  42  43
ENDBRANCH  41  42
BRANCH  41  65
HETATM   65  N   UNL     1       1.233  -7.158  16.383  1.00  0.00    -0.339 N 
HETATM   66  C   UNL     1       2.049  -6.273  17.119  1.00  0.00     0.209 A 
HETATM   67  N   UNL     1       3.191  -6.908  17.626  1.00  0.00    -0.254 NA
HETATM   68  C   UNL     1       3.136  -8.196  17.074  1.00  0.00     0.142 A 
HETATM   69  C   UNL     1       2.044  -8.350  16.321  1.00  0.00     0.026 A 
HETATM   70  C   UNL     1       1.870  -9.599  15.491  1.00  0.00     0.070 C 
ENDBRANCH  41  65
ENDBRANCH  40  41
ENDBRANCH  39  40
BRANCH  39  71
HETATM   71  N   UNL     1      -1.602  -3.581  14.759  1.00  0.00    -0.343 N 
HETATM   72  C   UNL     1      -2.633  -3.065  15.469  1.00  0.00     0.111 A 
HETATM   73  C   UNL     1      -3.688  -2.838  14.618  1.00  0.00     0.135 A 
HETATM   74  N   UNL     1      -3.346  -3.228  13.379  1.00  0.00    -0.255 NA
HETATM   75  C   UNL     1      -2.085  -3.685  13.499  1.00  0.00     0.209 A 
ENDBRANCH  39  71
ENDBRANCH  38  39
ENDBRANCH  37  38
ENDBRANCH  27  37
ENDBRANCH  21  22
ENDBRANCH  11  21
BRANCH  12  76
HETATM   76  O   UNL     1       3.208   2.801  15.237  1.00  0.00    -0.390 OA
HETATM   77  H   UNL     1       2.633   2.290  15.862  1.00  0.00     0.210 HD
ENDBRANCH  12  76
BRANCH  13  78
HETATM   78  O   UNL     1       3.607   4.705  13.276  1.00  0.00    -0.388 OA
HETATM   79  H   UNL     1       4.329   4.710  12.629  1.00  0.00     0.210 HD
ENDBRANCH  13  78
ENDBRANCH   7   8
ENDBRANCH   1   7
BRANCH   2  80
HETATM   80  C   UNL     1       0.932   7.348  16.049  1.00  0.00     0.203 C 
BRANCH  80  81
HETATM   81  O   UNL     1       1.886   6.783  16.930  1.00  0.00    -0.379 OA
BRANCH  81  82
HETATM   82  C   UNL     1       3.202   6.992  16.468  1.00  0.00     0.281 C 
BRANCH  82  83
HETATM   83  C   UNL     1       3.938   7.807  17.487  1.00  0.00     0.313 C 
HETATM   84  O   UNL     1       4.297   7.292  18.535  1.00  0.00    -0.260 OA
BRANCH  83  85
HETATM   85  O   UNL     1       4.209   9.107  17.260  1.00  0.00    -0.148 OA
HETATM   86 Na   UNL     1       2.973  10.571  17.884  1.00  0.00     0.000 Na
ENDBRANCH  83  85
ENDBRANCH  82  83
ENDBRANCH  81  82
ENDBRANCH  80  81
ENDBRANCH   2  80
BRANCH   3  87
HETATM   87  O   UNL     1      -1.514   6.048  12.308  1.00  0.00    -0.390 OA
HETATM   88  H   UNL     1      -0.840   5.522  11.805  1.00  0.00     0.210 HD
ENDBRANCH   3  87
BRANCH   4  89
HETATM   89  O   UNL     1       0.553   7.844  11.265  1.00  0.00    -0.376 OA
BRANCH  89  90
HETATM   90  C   UNL     1       1.050   8.982  10.462  1.00  0.00     0.194 C 
BRANCH  90  91
HETATM   91  C   UNL     1       0.399   9.108   9.023  1.00  0.00     0.116 C 
BRANCH  91  92
HETATM   92  N   UNL     1      -0.243  10.431   8.820  1.00  0.00    -0.343 N 
HETATM   93  C   UNL     1      -0.454  11.407   9.732  1.00  0.00     0.111 A 
HETATM   94  C   UNL     1      -1.099  12.453   9.117  1.00  0.00     0.135 A 
HETATM   95  N   UNL     1      -1.313  12.142   7.828  1.00  0.00    -0.255 NA
HETATM   96  C   UNL     1      -0.791  10.909   7.677  1.00  0.00     0.209 A 
ENDBRANCH  91  92
BRANCH  91  97
HETATM   97  C   UNL     1       1.413   8.663   7.895  1.00  0.00     0.053 C 
BRANCH  97  98
HETATM   98  C   UNL     1       1.322   7.262   7.161  1.00  0.00     0.094 C 
BRANCH  98  99
HETATM   99  C   UNL     1       0.900   7.302   5.644  1.00  0.00     0.051 C 
BRANCH  99 100
HETATM  100  C   UNL     1      -0.589   6.956   5.310  1.00  0.00     0.094 C 
BRANCH 100 101
HETATM  101  N   UNL     1      -0.873   5.519   5.484  1.00  0.00    -0.345 N 
HETATM  102  C   UNL     1      -2.054   4.967   5.825  1.00  0.00     0.111 A 
HETATM  103  C   UNL     1      -1.880   3.605   5.916  1.00  0.00     0.135 A 
HETATM  104  N   UNL     1      -0.595   3.303   5.649  1.00  0.00    -0.255 NA
HETATM  105  C   UNL     1      -0.007   4.489   5.395  1.00  0.00     0.209 A 
ENDBRANCH 100 101
BRANCH 100 106
HETATM  106  C   UNL     1      -1.021   7.369   3.860  1.00  0.00     0.051 C 
BRANCH 106 107
HETATM  107  C   UNL     1      -0.551   6.318   2.815  1.00  0.00     0.094 C 
BRANCH 107 108
HETATM  108  C   UNL     1      -1.563   5.954   1.678  1.00  0.00     0.051 C 
BRANCH 108 109
HETATM  109  C   UNL     1      -2.629   6.993   1.212  1.00  0.00     0.089 C 
HETATM  110  C   UNL     1      -2.084   7.781   0.009  1.00  0.00     0.033 C 
BRANCH 109 111
HETATM  111  N   UNL     1      -3.927   6.443   0.856  1.00  0.00    -0.334 N 
HETATM  112  C   UNL     1      -4.665   6.595  -0.333  1.00  0.00     0.082 A 
HETATM  113  C   UNL     1      -5.788   5.899  -0.167  1.00  0.00     0.150 A 
HETATM  114  N   UNL     1      -5.811   5.297   1.112  1.00  0.00    -0.254 NA
HETATM  115  C   UNL     1      -4.721   5.631   1.686  1.00  0.00     0.210 A 
ENDBRANCH 109 111
ENDBRANCH 108 109
ENDBRANCH 107 108
BRANCH 107 116
HETATM  116  N   UNL     1       0.774   6.643   2.289  1.00  0.00    -0.339 N 
HETATM  117  C   UNL     1       1.239   7.925   1.932  1.00  0.00     0.209 A 
HETATM  118  N   UNL     1       2.584   7.863   1.525  1.00  0.00    -0.254 NA
HETATM  119  C   UNL     1       2.928   6.500   1.656  1.00  0.00     0.142 A 
HETATM  120  C   UNL     1       1.892   5.787   2.100  1.00  0.00     0.026 A 
HETATM  121  C   UNL     1       1.951   4.307   2.351  1.00  0.00     0.070 C 
ENDBRANCH 107 116
ENDBRANCH 106 107
ENDBRANCH 100 106
ENDBRANCH  99 100
ENDBRANCH  98  99
BRANCH  98 122
HETATM  122  N   UNL     1       2.275   6.196   7.545  1.00  0.00    -0.339 N 
HETATM  123  C   UNL     1       3.272   5.427   6.867  1.00  0.00     0.026 A 
HETATM  124  C   UNL     1       3.916   4.635   7.726  1.00  0.00     0.142 A 
HETATM  125  C   UNL     1       3.671   5.455   5.439  1.00  0.00     0.070 C 
HETATM  126  N   UNL     1       3.466   4.845   9.038  1.00  0.00    -0.254 NA
HETATM  127  C   UNL     1       2.496   5.850   8.903  1.00  0.00     0.209 A 
ENDBRANCH  98 122
ENDBRANCH  97  98
ENDBRANCH  91  97
ENDBRANCH  90  91
ENDBRANCH  89  90
ENDBRANCH   4  89
BRANCH   5 128
HETATM  128  O   UNL     1       0.571  10.389  13.190  1.00  0.00    -0.348 OA
BRANCH 128 129
HETATM  129  C   UNL     1       0.383  11.246  14.337  1.00  0.00     0.187 C 
HETATM  130  C   UNL     1      -0.620  10.665  15.374  1.00  0.00     0.180 C 
HETATM  131  O   UNL     1      -0.942  11.655  16.348  1.00  0.00    -0.348 OA
HETATM  132  C   UNL     1      -1.925  10.213  14.705  1.00  0.00     0.203 C 
HETATM  133  C   UNL     1       0.188  12.099  17.090  1.00  0.00     0.292 C 
HETATM  134  O   UNL     1       0.550  11.119  18.063  1.00  0.00    -0.348 OA
HETATM  135  C   UNL     1       1.370  12.550  16.184  1.00  0.00     0.204 C 
HETATM  136  C   UNL     1       0.227  11.535  19.396  1.00  0.00     0.187 C 
HETATM  137  C   UNL     1      -0.451  10.377  20.211  1.00  0.00     0.176 C 
HETATM  138  C   UNL     1       1.486  11.982  20.158  1.00  0.00     0.180 C 
HETATM  139  O   UNL     1      -0.414  10.555  21.637  1.00  0.00    -0.378 OA
HETATM  140  C   UNL     1      -1.900  10.135  19.735  1.00  0.00     0.203 C 
HETATM  141  C   UNL     1      -0.293  11.909  22.016  1.00  0.00     0.202 C 
HETATM  142  C   UNL     1       1.069  12.504  21.571  1.00  0.00     0.173 C 
HETATM  143  O   UNL     1      -2.623   9.221  20.541  1.00  0.00    -0.379 OA
HETATM  144  C   UNL     1      -2.009   7.951  20.598  1.00  0.00     0.280 C 
HETATM  145  C   UNL     1      -3.044   6.929  20.957  1.00  0.00     0.308 C 
HETATM  146  O   UNL     1      -3.699   7.055  21.979  1.00  0.00    -0.261 OA
HETATM  147  O   UNL     1      -3.247   5.860  20.165  1.00  0.00    -0.158 OA
HETATM  148 Na   UNL     1      -2.077   5.546  18.555  1.00  0.00    -0.020 Na
HETATM  149 Na   UNL     1      -2.426   5.142  15.941  1.00  0.00     0.080 Na
HETATM  150  O   UNL     1      -3.824   6.339  16.767  1.00  0.00    -0.180 OA
HETATM  151  C   UNL     1      -3.774   7.671  16.579  1.00  0.00     0.302 C 
HETATM  152  C   UNL     1      -2.684   8.259  15.734  1.00  0.00     0.280 C 
HETATM  153  O   UNL     1      -4.624   8.383  17.092  1.00  0.00    -0.261 OA
HETATM  154  O   UNL     1      -2.825   9.667  15.656  1.00  0.00    -0.379 OA
HETATM  155  C   UNL     1       1.701  11.530  15.073  1.00  0.00     0.183 C 
BRANCH 142 156
HETATM  156  O   UNL     1       2.128  12.283  22.560  1.00  0.00    -0.391 OA
HETATM  157  H   UNL     1       2.636  13.101  22.680  1.00  0.00     0.210 HD
ENDBRANCH 142 156
BRANCH 138 158
HETATM  158  O   UNL     1       2.425  10.929  20.208  1.00  0.00    -0.390 OA
HETATM  159  H   UNL     1       2.020  10.147  20.661  1.00  0.00     0.210 HD
ENDBRANCH 138 158
BRANCH 135 160
HETATM  160  O   UNL     1       2.543  12.915  16.978  1.00  0.00    -0.388 OA
HETATM  161  H   UNL     1       2.370  13.746  17.447  1.00  0.00     0.210 HD
ENDBRANCH 135 160
BRANCH 155 162
HETATM  162  O   UNL     1       2.242  10.355  15.622  1.00  0.00    -0.390 OA
HETATM  163  H   UNL     1       1.583  10.021  16.284  1.00  0.00     0.210 HD
ENDBRANCH 155 162
ENDBRANCH 128 129
ENDBRANCH   5 128
TORSDOF 61
ENDMDL
MODEL 9
REMARK VINA RESULT:      -7.1      4.476     16.649
REMARK WARNING: 32 MAX_TORS EXCEEDED!!!
REMARK  61 active torsions:
REMARK  status: ('A' for Active; 'I' for Inactive)
REMARK    1  A    between atoms: C_1  and  O_30 
REMARK    2  A    between atoms: C_2  and  C_6 
REMARK    3  A    between atoms: C_3  and  O_9 
REMARK    4  A    between atoms: C_4  and  O_11 
REMARK    5  A    between atoms: C_5  and  O_12 
REMARK    6  A    between atoms: C_6  and  O_7 
REMARK    7  A    between atoms: O_7  and  C_147 
REMARK    8  A    between atoms: O_11  and  C_107 
REMARK    9  A    between atoms: O_12  and  C_20 
REMARK   10  A    between atoms: O_14  and  C_18 
REMARK   11  A    between atoms: O_21  and  C_24 
REMARK   12  A    between atoms: O_26  and  C_29 
REMARK   13  A    between atoms: C_28  and  C_34 
REMARK   14  A    between atoms: O_30  and  C_33 
REMARK   15  A    between atoms: C_31  and  O_53 
REMARK   16  A    between atoms: O_32  and  C_35 
REMARK   17  A    between atoms: C_34  and  O_59 
REMARK   18  A    between atoms: O_37  and  C_41 
REMARK   19  A    between atoms: O_43  and  C_46 
REMARK   20  A    between atoms: O_48  and  C_52 
REMARK   21  A    between atoms: C_50  and  C_57 
REMARK   22  A    between atoms: O_51  and  C_57 
REMARK   23  A    between atoms: O_51  and  C_60 
REMARK   24  A    between atoms: O_53  and  C_56 
REMARK   25  A    between atoms: O_55  and  C_58 
REMARK   26  A    between atoms: O_55  and  C_61 
REMARK   27  A    between atoms: O_59  and  C_142 
REMARK   28  A    between atoms: C_60  and  C_137 
REMARK   29  A    between atoms: C_61  and  C_62 
REMARK   30  A    between atoms: C_62  and  C_63 
REMARK   31  A    between atoms: C_62  and  N_76 
REMARK   32  A    between atoms: C_63  and  C_64 
REMARK   33  A    between atoms: C_64  and  C_65 
REMARK   34  A    between atoms: C_64  and  N_90 
REMARK   35  A    between atoms: C_65  and  C_66 
REMARK   36  A    between atoms: C_66  and  C_67 
REMARK   37  A    between atoms: C_66  and  N_80 
REMARK   38  A    between atoms: C_67  and  C_68 
REMARK   39  A    between atoms: C_68  and  C_69 
REMARK   40  A    between atoms: C_68  and  N_95 
REMARK   41  A    between atoms: C_69  and  C_70 
REMARK   42  A    between atoms: C_70  and  N_85 
REMARK   43  A    between atoms: N_102  and  C_108 
REMARK   44  A    between atoms: C_107  and  C_108 
REMARK   45  A    between atoms: C_108  and  C_115 
REMARK   46  A    between atoms: N_111  and  C_117 
REMARK   47  A    between atoms: C_113  and  C_117 
REMARK   48  A    between atoms: C_113  and  C_119 
REMARK   49  A    between atoms: N_114  and  C_124 
REMARK   50  A    between atoms: C_115  and  C_119 
REMARK   51  A    between atoms: C_117  and  C_121 
REMARK   52  A    between atoms: N_118  and  C_119 
REMARK   53  A    between atoms: C_121  and  C_126 
REMARK   54  A    between atoms: C_124  and  C_125 
REMARK   55  A    between atoms: C_125  and  C_126 
REMARK   56  A    between atoms: C_126  and  N_129 
REMARK   57  A    between atoms: C_137  and  O_139 
REMARK   58  A    between atoms: C_142  and  C_144 
REMARK   59  A    between atoms: O_143  and  C_144 
REMARK   60  A    between atoms: C_147  and  C_149 
REMARK   61  A    between atoms: O_148  and  C_149 
ROOT
HETATM    1  C   UNL     1       1.734   4.929  12.478  1.00  0.00     0.187 C 
HETATM    2  C   UNL     1       2.989   4.003  12.300  1.00  0.00     0.180 C 
HETATM    3  C   UNL     1       0.409   4.179  12.199  1.00  0.00     0.183 C 
HETATM    4  C   UNL     1       0.394   2.790  12.909  1.00  0.00     0.208 C 
HETATM    5  C   UNL     1       1.635   2.072  12.323  1.00  0.00     0.292 C 
HETATM    6  O   UNL     1       2.809   2.681  12.839  1.00  0.00    -0.348 OA
ENDROOT
BRANCH   1   7
HETATM    7  O   UNL     1       1.694   5.431  13.803  1.00  0.00    -0.348 OA
BRANCH   7   8
HETATM    8  C   UNL     1       1.667   6.859  13.876  1.00  0.00     0.292 C 
HETATM    9  O   UNL     1       2.094   7.379  12.633  1.00  0.00    -0.348 OA
HETATM   10  C   UNL     1       2.035   8.811  12.558  1.00  0.00     0.180 C 
HETATM   11  C   UNL     1       2.281   9.552  13.915  1.00  0.00     0.187 C 
HETATM   12  C   UNL     1       3.240   8.708  14.752  1.00  0.00     0.183 C 
HETATM   13  C   UNL     1       2.559   7.348  15.060  1.00  0.00     0.204 C 
BRANCH  10  14
HETATM   14  C   UNL     1       0.737   9.276  11.887  1.00  0.00     0.203 C 
BRANCH  14  15
HETATM   15  O   UNL     1       0.130   8.181  11.236  1.00  0.00    -0.379 OA
BRANCH  15  16
HETATM   16  C   UNL     1      -0.560   8.633  10.092  1.00  0.00     0.281 C 
BRANCH  16  17
HETATM   17  C   UNL     1      -1.037   7.443   9.321  1.00  0.00     0.313 C 
HETATM   18  O   UNL     1      -0.906   6.317   9.775  1.00  0.00    -0.260 OA
BRANCH  17  19
HETATM   19  O   UNL     1      -1.616   7.614   8.117  1.00  0.00    -0.148 OA
HETATM   20 Na   UNL     1      -1.383   9.357   7.133  1.00  0.00     0.000 Na
ENDBRANCH  17  19
ENDBRANCH  16  17
ENDBRANCH  15  16
ENDBRANCH  14  15
ENDBRANCH  10  14
BRANCH  11  21
HETATM   21  O   UNL     1       2.879  10.817  13.674  1.00  0.00    -0.348 OA
BRANCH  21  22
HETATM   22  C   UNL     1       2.939  11.668  14.804  1.00  0.00     0.292 C 
HETATM   23  O   UNL     1       2.072  11.125  15.796  1.00  0.00    -0.351 OA
HETATM   24  C   UNL     1       1.755  11.994  16.891  1.00  0.00     0.151 C 
HETATM   25  C   UNL     1       2.668  13.238  16.982  1.00  0.00     0.068 C 
HETATM   26  C   UNL     1       2.668  14.036  15.654  1.00  0.00     0.154 C 
HETATM   27  C   UNL     1       2.515  13.113  14.404  1.00  0.00     0.205 C 
BRANCH  24  28
HETATM   28  C   UNL     1       1.861  11.181  18.189  1.00  0.00     0.200 C 
BRANCH  28  29
HETATM   29  O   UNL     1       2.346   9.888  17.891  1.00  0.00    -0.379 OA
BRANCH  29  30
HETATM   30  C   UNL     1       3.225   9.456  18.911  1.00  0.00     0.281 C 
BRANCH  30  31
HETATM   31  C   UNL     1       4.332   8.659  18.290  1.00  0.00     0.313 C 
HETATM   32  O   UNL     1       4.211   7.454  18.135  1.00  0.00    -0.260 OA
BRANCH  31  33
HETATM   33  O   UNL     1       5.466   9.270  17.898  1.00  0.00    -0.148 OA
HETATM   34 Na   UNL     1       5.869   9.523  15.941  1.00  0.00     0.000 Na
ENDBRANCH  31  33
ENDBRANCH  30  31
ENDBRANCH  29  30
ENDBRANCH  28  29
ENDBRANCH  24  28
BRANCH  26  35
HETATM   35  O   UNL     1       1.724  15.081  15.644  1.00  0.00    -0.393 OA
HETATM   36  H   UNL     1       2.104  15.839  15.128  1.00  0.00     0.210 HD
ENDBRANCH  26  35
BRANCH  27  37
HETATM   37  O   UNL     1       1.126  13.190  13.885  1.00  0.00    -0.376 OA
BRANCH  37  38
HETATM   38  C   UNL     1       0.968  13.072  12.421  1.00  0.00     0.194 C 
BRANCH  38  39
HETATM   39  C   UNL     1      -0.526  13.095  11.974  1.00  0.00     0.116 C 
BRANCH  39  40
HETATM   40  C   UNL     1      -1.361  12.205  12.985  1.00  0.00     0.053 C 
BRANCH  40  41
HETATM   41  C   UNL     1      -2.870  12.523  13.291  1.00  0.00     0.094 C 
BRANCH  41  42
HETATM   42  C   UNL     1      -3.346  11.607  14.499  1.00  0.00     0.051 C 
BRANCH  42  43
HETATM   43  C   UNL     1      -4.845  11.244  14.795  1.00  0.00     0.094 C 
BRANCH  43  44
HETATM   44  C   UNL     1      -4.951  10.060  15.809  1.00  0.00     0.051 C 
BRANCH  44  45
HETATM   45  C   UNL     1      -3.574   9.683  16.410  1.00  0.00     0.094 C 
BRANCH  45  46
HETATM   46  C   UNL     1      -3.309  10.140  17.882  1.00  0.00     0.051 C 
BRANCH  46  47
HETATM   47  C   UNL     1      -1.903  10.660  18.310  1.00  0.00     0.089 C 
HETATM   48  C   UNL     1      -2.026  12.091  18.855  1.00  0.00     0.033 C 
BRANCH  47  49
HETATM   49  N   UNL     1      -1.234   9.842  19.310  1.00  0.00    -0.334 N 
HETATM   50  C   UNL     1      -0.735   8.543  19.105  1.00  0.00     0.210 A 
HETATM   51  N   UNL     1      -0.146   8.097  20.147  1.00  0.00    -0.254 NA
HETATM   52  C   UNL     1      -0.223   9.121  21.119  1.00  0.00     0.150 A 
HETATM   53  C   UNL     1      -0.865  10.177  20.628  1.00  0.00     0.082 A 
ENDBRANCH  47  49
ENDBRANCH  46  47
ENDBRANCH  45  46
BRANCH  45  54
HETATM   54  N   UNL     1      -3.365   8.218  16.251  1.00  0.00    -0.339 N 
HETATM   55  C   UNL     1      -3.810   7.262  17.101  1.00  0.00     0.209 A 
HETATM   56  N   UNL     1      -3.509   6.016  16.684  1.00  0.00    -0.254 NA
HETATM   57  C   UNL     1      -2.852   6.189  15.526  1.00  0.00     0.142 A 
HETATM   58  C   UNL     1      -2.762   7.539  15.251  1.00  0.00     0.026 A 
HETATM   59  C   UNL     1      -2.099   8.096  14.031  1.00  0.00     0.070 C 
ENDBRANCH  45  54
ENDBRANCH  44  45
ENDBRANCH  43  44
BRANCH  43  60
HETATM   60  N   UNL     1      -5.578  12.385  15.376  1.00  0.00    -0.345 N 
HETATM   61  C   UNL     1      -5.532  12.810  16.655  1.00  0.00     0.209 A 
HETATM   62  N   UNL     1      -6.282  13.912  16.854  1.00  0.00    -0.255 NA
HETATM   63  C   UNL     1      -6.807  14.195  15.645  1.00  0.00     0.135 A 
HETATM   64  C   UNL     1      -6.366  13.266  14.730  1.00  0.00     0.111 A 
ENDBRANCH  43  60
ENDBRANCH  42  43
ENDBRANCH  41  42
BRANCH  41  65
HETATM   65  N   UNL     1      -3.204  13.963  13.332  1.00  0.00    -0.339 N 
HETATM   66  C   UNL     1      -3.846  14.638  12.273  1.00  0.00     0.209 A 
HETATM   67  N   UNL     1      -3.936  16.017  12.506  1.00  0.00    -0.254 NA
HETATM   68  C   UNL     1      -3.212  16.209  13.690  1.00  0.00     0.142 A 
HETATM   69  C   UNL     1      -2.743  15.051  14.161  1.00  0.00     0.026 A 
HETATM   70  C   UNL     1      -1.789  15.041  15.331  1.00  0.00     0.070 C 
ENDBRANCH  41  65
ENDBRANCH  40  41
ENDBRANCH  39  40
BRANCH  39  71
HETATM   71  N   UNL     1      -0.709  12.811  10.524  1.00  0.00    -0.343 N 
HETATM   72  C   UNL     1      -1.802  13.002   9.746  1.00  0.00     0.111 A 
HETATM   73  C   UNL     1      -1.523  12.562   8.474  1.00  0.00     0.135 A 
HETATM   74  N   UNL     1      -0.274  12.070   8.443  1.00  0.00    -0.255 NA
HETATM   75  C   UNL     1       0.187  12.222   9.699  1.00  0.00     0.209 A 
ENDBRANCH  39  71
ENDBRANCH  38  39
ENDBRANCH  37  38
ENDBRANCH  27  37
ENDBRANCH  21  22
ENDBRANCH  11  21
BRANCH  12  76
HETATM   76  O   UNL     1       4.481   8.573  14.091  1.00  0.00    -0.390 OA
HETATM   77  H   UNL     1       4.534   9.222  13.345  1.00  0.00     0.210 HD
ENDBRANCH  12  76
BRANCH  13  78
HETATM   78  O   UNL     1       3.555   6.368  15.475  1.00  0.00    -0.388 OA
HETATM   79  H   UNL     1       4.415   6.804  15.576  1.00  0.00     0.210 HD
ENDBRANCH  13  78
ENDBRANCH   7   8
ENDBRANCH   1   7
BRANCH   2  80
HETATM   80  C   UNL     1       3.515   3.978  10.841  1.00  0.00     0.203 C 
BRANCH  80  81
HETATM   81  O   UNL     1       2.579   4.580   9.966  1.00  0.00    -0.379 OA
BRANCH  81  82
HETATM   82  C   UNL     1       3.172   5.608   9.204  1.00  0.00     0.281 C 
BRANCH  82  83
HETATM   83  C   UNL     1       2.195   6.044   8.155  1.00  0.00     0.313 C 
HETATM   84  O   UNL     1       2.108   7.225   7.858  1.00  0.00    -0.260 OA
BRANCH  83  85
HETATM   85  O   UNL     1       1.408   5.144   7.534  1.00  0.00    -0.148 OA
HETATM   86 Na   UNL     1      -0.575   5.433   7.331  1.00  0.00     0.000 Na
ENDBRANCH  83  85
ENDBRANCH  82  83
ENDBRANCH  81  82
ENDBRANCH  80  81
ENDBRANCH   2  80
BRANCH   3  87
HETATM   87  O   UNL     1      -0.688   4.969  12.580  1.00  0.00    -0.390 OA
HETATM   88  H   UNL     1      -1.414   4.785  11.929  1.00  0.00     0.210 HD
ENDBRANCH   3  87
BRANCH   4  89
HETATM   89  O   UNL     1       0.418   2.952  14.395  1.00  0.00    -0.376 OA
BRANCH  89  90
HETATM   90  C   UNL     1      -0.872   2.748  15.091  1.00  0.00     0.194 C 
BRANCH  90  91
HETATM   91  C   UNL     1      -0.780   2.777  16.672  1.00  0.00     0.116 C 
BRANCH  91  92
HETATM   92  N   UNL     1       0.184   3.799  17.152  1.00  0.00    -0.343 N 
HETATM   93  C   UNL     1      -0.023   5.123  17.330  1.00  0.00     0.111 A 
HETATM   94  C   UNL     1       1.147   5.697  17.768  1.00  0.00     0.135 A 
HETATM   95  N   UNL     1       2.097   4.750  17.853  1.00  0.00    -0.255 NA
HETATM   96  C   UNL     1       1.487   3.611  17.468  1.00  0.00     0.209 A 
ENDBRANCH  91  92
BRANCH  91  97
HETATM   97  C   UNL     1      -2.218   2.836  17.328  1.00  0.00     0.053 C 
BRANCH  97  98
HETATM   98  C   UNL     1      -2.808   1.659  18.211  1.00  0.00     0.094 C 
BRANCH  98  99
HETATM   99  C   UNL     1      -2.749   1.869  19.771  1.00  0.00     0.051 C 
BRANCH  99 100
HETATM  100  C   UNL     1      -1.354   2.216  20.390  1.00  0.00     0.094 C 
BRANCH 100 101
HETATM  101  N   UNL     1      -0.469   1.037  20.446  1.00  0.00    -0.345 N 
HETATM  102  C   UNL     1       0.515   0.726  19.579  1.00  0.00     0.111 A 
HETATM  103  C   UNL     1       1.070  -0.471  19.971  1.00  0.00     0.135 A 
HETATM  104  N   UNL     1       0.431  -0.917  21.069  1.00  0.00    -0.255 NA
HETATM  105  C   UNL     1      -0.503   0.019  21.330  1.00  0.00     0.209 A 
ENDBRANCH 100 101
BRANCH 100 106
HETATM  106  C   UNL     1      -1.440   2.833  21.829  1.00  0.00     0.051 C 
BRANCH 106 107
HETATM  107  C   UNL     1      -0.792   4.246  21.871  1.00  0.00     0.094 C 
BRANCH 107 108
HETATM  108  C   UNL     1       0.477   4.466  20.983  1.00  0.00     0.051 C 
BRANCH 108 109
HETATM  109  C   UNL     1       1.897   4.465  21.627  1.00  0.00     0.089 C 
HETATM  110  C   UNL     1       1.827   5.107  23.022  1.00  0.00     0.033 C 
BRANCH 109 111
HETATM  111  N   UNL     1       2.531   3.162  21.749  1.00  0.00    -0.334 N 
HETATM  112  C   UNL     1       2.345   2.167  22.726  1.00  0.00     0.082 A 
HETATM  113  C   UNL     1       3.157   1.164  22.397  1.00  0.00     0.150 A 
HETATM  114  N   UNL     1       3.883   1.480  21.225  1.00  0.00    -0.254 NA
HETATM  115  C   UNL     1       3.504   2.646  20.871  1.00  0.00     0.210 A 
ENDBRANCH 109 111
ENDBRANCH 108 109
ENDBRANCH 107 108
BRANCH 107 116
HETATM  116  N   UNL     1      -1.789   5.298  21.674  1.00  0.00    -0.339 N 
HETATM  117  C   UNL     1      -2.574   5.499  20.521  1.00  0.00     0.209 A 
HETATM  118  N   UNL     1      -3.468   6.566  20.716  1.00  0.00    -0.254 NA
HETATM  119  C   UNL     1      -3.210   7.004  22.033  1.00  0.00     0.142 A 
HETATM  120  C   UNL     1      -2.246   6.275  22.598  1.00  0.00     0.026 A 
HETATM  121  C   UNL     1      -1.757   6.494  24.001  1.00  0.00     0.070 C 
ENDBRANCH 107 116
ENDBRANCH 106 107
ENDBRANCH 100 106
ENDBRANCH  99 100
ENDBRANCH  98  99
BRANCH  98 122
HETATM  122  N   UNL     1      -3.972   0.903  17.697  1.00  0.00    -0.339 N 
HETATM  123  C   UNL     1      -5.394   1.024  17.804  1.00  0.00     0.026 A 
HETATM  124  C   UNL     1      -5.999   0.096  17.060  1.00  0.00     0.142 A 
HETATM  125  C   UNL     1      -6.200   2.023  18.547  1.00  0.00     0.070 C 
HETATM  126  N   UNL     1      -5.061  -0.670  16.352  1.00  0.00    -0.254 NA
HETATM  127  C   UNL     1      -3.827  -0.114  16.720  1.00  0.00     0.209 A 
ENDBRANCH  98 122
ENDBRANCH  97  98
ENDBRANCH  91  97
ENDBRANCH  90  91
ENDBRANCH  89  90
ENDBRANCH   4  89
BRANCH   5 128
HETATM  128  O   UNL     1       1.618   0.650  12.539  1.00  0.00    -0.348 OA
BRANCH 128 129
HETATM  129  C   UNL     1       1.396   0.338  13.930  1.00  0.00     0.187 C 
HETATM  130  C   UNL     1       0.335  -0.780  14.142  1.00  0.00     0.180 C 
HETATM  131  O   UNL     1      -0.011  -0.868  15.522  1.00  0.00    -0.348 OA
HETATM  132  C   UNL     1      -0.948  -0.499  13.347  1.00  0.00     0.203 C 
HETATM  133  C   UNL     1       1.093  -1.201  16.356  1.00  0.00     0.292 C 
HETATM  134  O   UNL     1       1.391  -2.593  16.241  1.00  0.00    -0.348 OA
HETATM  135  C   UNL     1       2.323  -0.275  16.132  1.00  0.00     0.204 C 
HETATM  136  C   UNL     1       1.016  -3.324  17.415  1.00  0.00     0.187 C 
HETATM  137  C   UNL     1       0.279  -4.660  17.048  1.00  0.00     0.176 C 
HETATM  138  C   UNL     1       2.248  -3.677  18.265  1.00  0.00     0.180 C 
HETATM  139  O   UNL     1       0.255  -5.635  18.104  1.00  0.00    -0.378 OA
HETATM  140  C   UNL     1      -1.152  -4.385  16.535  1.00  0.00     0.203 C 
HETATM  141  C   UNL     1       0.386  -5.055  19.384  1.00  0.00     0.202 C 
HETATM  142  C   UNL     1       1.779  -4.397  19.570  1.00  0.00     0.173 C 
HETATM  143  O   UNL     1      -1.929  -5.555  16.347  1.00  0.00    -0.379 OA
HETATM  144  C   UNL     1      -1.344  -6.448  15.424  1.00  0.00     0.280 C 
HETATM  145  C   UNL     1      -2.414  -7.331  14.861  1.00  0.00     0.308 C 
HETATM  146  O   UNL     1      -3.112  -7.998  15.608  1.00  0.00    -0.261 OA
HETATM  147  O   UNL     1      -2.603  -7.408  13.530  1.00  0.00    -0.158 OA
HETATM  148 Na   UNL     1      -1.368  -6.439  12.268  1.00  0.00    -0.020 Na
HETATM  149 Na   UNL     1      -1.606  -4.691  10.266  1.00  0.00     0.080 Na
HETATM  150  O   UNL     1      -3.015  -4.482  11.694  1.00  0.00    -0.180 OA
HETATM  151  C   UNL     1      -2.930  -3.481  12.591  1.00  0.00     0.302 C 
HETATM  152  C   UNL     1      -1.791  -2.509  12.509  1.00  0.00     0.280 C 
HETATM  153  O   UNL     1      -3.787  -3.371  13.454  1.00  0.00    -0.261 OA
HETATM  154  O   UNL     1      -1.900  -1.533  13.532  1.00  0.00    -0.379 OA
HETATM  155  C   UNL     1       2.684  -0.103  14.641  1.00  0.00     0.183 C 
BRANCH 142 156
HETATM  156  O   UNL     1       2.787  -5.344  20.055  1.00  0.00    -0.391 OA
HETATM  157  H   UNL     1       3.285  -4.942  20.784  1.00  0.00     0.210 HD
ENDBRANCH 142 156
BRANCH 138 158
HETATM  158  O   UNL     1       3.163  -4.440  17.507  1.00  0.00    -0.390 OA
HETATM  159  H   UNL     1       2.877  -4.449  16.559  1.00  0.00     0.210 HD
ENDBRANCH 138 158
BRANCH 135 160
HETATM  160  O   UNL     1       3.467  -0.700  16.940  1.00  0.00    -0.388 OA
HETATM  161  H   UNL     1       4.043  -1.272  16.408  1.00  0.00     0.210 HD
ENDBRANCH 135 160
BRANCH 155 162
HETATM  162  O   UNL     1       3.176  -1.305  14.106  1.00  0.00    -0.390 OA
HETATM  163  H   UNL     1       2.518  -1.605  13.427  1.00  0.00     0.210 HD
ENDBRANCH 155 162
ENDBRANCH 128 129
ENDBRANCH   5 128
TORSDOF 61
ENDMDL
