MODEL 1
REMARK VINA RESULT:      -5.9      0.000      0.000
REMARK WARNING: 32 MAX_TORS EXCEEDED!!!
REMARK  88 active torsions:
REMARK  status: ('A' for Active; 'I' for Inactive)
REMARK    1  A    between atoms: C_1  and  O_28 
REMARK    2  A    between atoms: C_2  and  C_6 
REMARK    3  A    between atoms: C_3  and  O_8 
REMARK    4  A    between atoms: C_4  and  O_10 
REMARK    5  A    between atoms: C_5  and  O_11 
REMARK    6  A    between atoms: C_6  and  O_58 
REMARK    7  A    between atoms: O_11  and  C_18 
REMARK    8  A    between atoms: O_13  and  C_16 
REMARK    9  A    between atoms: C_15  and  C_21 
REMARK   10  A    between atoms: O_17  and  C_20 
REMARK   11  A    between atoms: O_17  and  C_39 
REMARK   12  A    between atoms: O_19  and  C_22 
REMARK   13  A    between atoms: O_19  and  C_153 
REMARK   14  A    between atoms: C_21  and  O_60 
REMARK   15  A    between atoms: O_24  and  C_27 
REMARK   16  A    between atoms: C_26  and  C_32 
REMARK   17  A    between atoms: O_28  and  C_31 
REMARK   18  A    between atoms: C_29  and  O_49 
REMARK   19  A    between atoms: O_30  and  C_33 
REMARK   20  A    between atoms: C_32  and  O_56 
REMARK   21  A    between atoms: O_35  and  C_38 
REMARK   22  A    between atoms: C_37  and  C_42 
REMARK   23  A    between atoms: O_40  and  C_43 
REMARK   24  A    between atoms: C_42  and  O_62 
REMARK   25  A    between atoms: O_45  and  C_48 
REMARK   26  A    between atoms: C_47  and  C_53 
REMARK   27  A    between atoms: O_49  and  C_52 
REMARK   28  A    between atoms: O_51  and  C_54 
REMARK   29  A    between atoms: O_51  and  C_64 
REMARK   30  A    between atoms: C_53  and  O_55 
REMARK   31  A    between atoms: C_64  and  C_65 
REMARK   32  A    between atoms: C_65  and  C_66 
REMARK   33  A    between atoms: C_65  and  C_75 
REMARK   34  A    between atoms: C_66  and  C_67 
REMARK   35  A    between atoms: C_67  and  C_68 
REMARK   36  A    between atoms: C_67  and  C_79 
REMARK   37  A    between atoms: C_68  and  C_69 
REMARK   38  A    between atoms: C_69  and  C_70 
REMARK   39  A    between atoms: C_69  and  C_83 
REMARK   40  A    between atoms: C_70  and  C_71 
REMARK   41  A    between atoms: C_71  and  C_72 
REMARK   42  A    between atoms: C_71  and  C_87 
REMARK   43  A    between atoms: C_72  and  C_73 
REMARK   44  A    between atoms: C_73  and  C_91 
REMARK   45  A    between atoms: C_75  and  C_76 
REMARK   46  A    between atoms: C_76  and  C_77 
REMARK   47  A    between atoms: C_77  and  N_95 
REMARK   48  A    between atoms: C_79  and  C_80 
REMARK   49  A    between atoms: C_80  and  C_81 
REMARK   50  A    between atoms: C_81  and  N_96 
REMARK   51  A    between atoms: C_83  and  C_84 
REMARK   52  A    between atoms: C_84  and  C_85 
REMARK   53  A    between atoms: C_85  and  N_97 
REMARK   54  A    between atoms: C_87  and  C_88 
REMARK   55  A    between atoms: C_88  and  C_89 
REMARK   56  A    between atoms: C_89  and  N_98 
REMARK   57  A    between atoms: C_91  and  C_92 
REMARK   58  A    between atoms: C_92  and  C_93 
REMARK   59  A    between atoms: C_93  and  N_99 
REMARK   60  A    between atoms: N_118  and  C_121 
REMARK   61  A    between atoms: C_121  and  C_127 
REMARK   62  A    between atoms: C_122  and  C_127 
REMARK   63  A    between atoms: C_122  and  C_134 
REMARK   64  A    between atoms: N_124  and  C_131 
REMARK   65  A    between atoms: C_128  and  C_129 
REMARK   66  A    between atoms: C_128  and  C_138 
REMARK   67  A    between atoms: C_129  and  C_131 
REMARK   68  A    between atoms: N_133  and  C_144 
REMARK   69  A    between atoms: C_134  and  C_145 
REMARK   70  A    between atoms: C_134  and  C_151 
REMARK   71  A    between atoms: C_136  and  C_144 
REMARK   72  A    between atoms: C_136  and  C_148 
REMARK   73  A    between atoms: C_138  and  C_154 
REMARK   74  A    between atoms: C_138  and  C_145 
REMARK   75  A    between atoms: C_140  and  C_148 
REMARK   76  A    between atoms: C_140  and  C_141 
REMARK   77  A    between atoms: C_141  and  C_155 
REMARK   78  A    between atoms: C_142  and  C_153 
REMARK   79  A    between atoms: C_142  and  C_151 
REMARK   80  A    between atoms: C_142  and  C_152 
REMARK   81  A    between atoms: C_143  and  N_149 
REMARK   82  A    between atoms: C_143  and  C_146 
REMARK   83  A    between atoms: C_146  and  C_152 
REMARK   84  A    between atoms: C_154  and  C_155 
REMARK   85  A    between atoms: C_155  and  C_161 
REMARK   86  A    between atoms: C_158  and  C_163 
REMARK   87  A    between atoms: C_158  and  C_161 
REMARK   88  A    between atoms: N_159  and  C_163 
ROOT
HETATM    1  C   UNL     1      -4.089  13.737  13.111  1.00  0.00     0.187 C 
HETATM    2  C   UNL     1      -3.722  13.869  11.617  1.00  0.00     0.180 C 
HETATM    3  C   UNL     1      -5.531  14.222  13.367  1.00  0.00     0.183 C 
HETATM    4  C   UNL     1      -5.823  15.555  12.638  1.00  0.00     0.204 C 
HETATM    5  C   UNL     1      -5.507  15.434  11.106  1.00  0.00     0.292 C 
HETATM    6  O   UNL     1      -4.868  14.188  10.807  1.00  0.00    -0.348 OA
ENDROOT
BRANCH   1   7
HETATM    7  O   UNL     1      -3.983  12.354  13.480  1.00  0.00    -0.348 OA
BRANCH   7   8
HETATM    8  C   UNL     1      -2.894  12.042  14.361  1.00  0.00     0.292 C 
HETATM    9  O   UNL     1      -1.773  12.792  13.902  1.00  0.00    -0.348 OA
HETATM   10  C   UNL     1      -0.490  12.450  14.450  1.00  0.00     0.180 C 
HETATM   11  C   UNL     1      -0.231  10.937  14.608  1.00  0.00     0.187 C 
HETATM   12  C   UNL     1      -1.283  10.102  13.888  1.00  0.00     0.183 C 
HETATM   13  C   UNL     1      -2.674  10.491  14.399  1.00  0.00     0.204 C 
BRANCH  10  14
HETATM   14  C   UNL     1      -0.311  13.207  15.776  1.00  0.00     0.198 C 
BRANCH  14  15
HETATM   15  O   UNL     1      -0.297  12.295  16.875  1.00  0.00    -0.398 OA
HETATM   16  H   UNL     1      -1.161  12.382  17.322  1.00  0.00     0.209 HD
ENDBRANCH  14  15
ENDBRANCH  10  14
BRANCH  11  17
HETATM   17  O   UNL     1       1.035  10.601  14.019  1.00  0.00    -0.348 OA
BRANCH  17  18
HETATM   18  C   UNL     1       1.915   9.932  14.916  1.00  0.00     0.292 C 
HETATM   19  O   UNL     1       3.267  10.218  14.534  1.00  0.00    -0.351 OA
HETATM   20  C   UNL     1       4.203   9.963  15.601  1.00  0.00     0.150 C 
HETATM   21  C   UNL     1       3.762   8.748  16.439  1.00  0.00     0.068 C 
HETATM   22  C   UNL     1       2.999   7.756  15.546  1.00  0.00     0.154 C 
HETATM   23  C   UNL     1       1.681   8.368  14.961  1.00  0.00     0.205 C 
BRANCH  20  24
HETATM   24  C   UNL     1       4.478  11.244  16.403  1.00  0.00     0.196 C 
BRANCH  24  25
HETATM   25  O   UNL     1       5.571  11.077  17.302  1.00  0.00    -0.398 OA
HETATM   26  H   UNL     1       5.372  11.523  18.140  1.00  0.00     0.209 HD
ENDBRANCH  24  25
ENDBRANCH  20  24
BRANCH  22  27
HETATM   27  O   UNL     1       3.886   7.384  14.478  1.00  0.00    -0.393 OA
HETATM   28  H   UNL     1       4.555   8.093  14.394  1.00  0.00     0.210 HD
ENDBRANCH  22  27
BRANCH  23  29
HETATM   29  O   UNL     1       1.345   7.775  13.628  1.00  0.00    -0.377 OA
BRANCH  29  30
HETATM   30  C   UNL     1       0.839   6.376  13.591  1.00  0.00     0.185 C 
BRANCH  30  31
HETATM   31  C   UNL     1      -0.181   6.051  12.383  1.00  0.00     0.039 C 
HETATM   32  C   UNL     1      -0.005   4.585  11.960  1.00  0.00     0.025 C 
BRANCH  31  33
HETATM   33  C   UNL     1       0.007   7.052  11.119  1.00  0.00     0.036 C 
BRANCH  33  34
HETATM   34  C   UNL     1       1.409   7.319  10.331  1.00  0.00     0.019 C 
HETATM   35  C   UNL     1       1.738   8.795  10.687  1.00  0.00     0.023 C 
BRANCH  34  36
HETATM   36  C   UNL     1       1.155   7.163   8.736  1.00  0.00     0.033 C 
BRANCH  36  37
HETATM   37  C   UNL     1      -0.208   6.691   7.955  1.00  0.00     0.019 C 
HETATM   38  C   UNL     1      -0.529   5.232   8.318  1.00  0.00     0.023 C 
BRANCH  37  39
HETATM   39  C   UNL     1       0.142   6.785   6.393  1.00  0.00     0.033 C 
BRANCH  39  40
HETATM   40  C   UNL     1       0.891   5.727   5.409  1.00  0.00     0.019 C 
HETATM   41  C   UNL     1       2.330   5.612   5.983  1.00  0.00     0.023 C 
BRANCH  40  42
HETATM   42  C   UNL     1       0.273   4.296   5.269  1.00  0.00     0.033 C 
BRANCH  42  43
HETATM   43  C   UNL     1      -1.150   3.938   4.691  1.00  0.00     0.014 C 
HETATM   44  C   UNL     1      -1.886   3.141   5.805  1.00  0.00     0.023 C 
HETATM   45  C   UNL     1      -1.128   2.978   3.485  1.00  0.00     0.023 C 
BRANCH  43  46
HETATM   46  C   UNL     1      -1.960   5.196   4.295  1.00  0.00     0.136 C 
HETATM   47  O   UNL     1      -2.506   5.878   5.168  1.00  0.00    -0.297 OA
BRANCH  46  48
HETATM   48  C   UNL     1      -2.174   5.549   2.826  1.00  0.00     0.109 C 
BRANCH  48  49
HETATM   49  C   UNL     1      -2.979   6.851   2.691  1.00  0.00     0.279 C 
BRANCH  49  50
HETATM   50  N   UNL     1      -4.097   6.735   1.731  1.00  0.00     0.080 N 
HETATM   51  C   UNL     1      -3.625   6.545   0.359  1.00  0.00     0.309 C 
HETATM   52  C   UNL     1      -4.968   5.614   2.101  1.00  0.00     0.309 C 
ENDBRANCH  49  50
ENDBRANCH  48  49
ENDBRANCH  46  48
ENDBRANCH  43  46
ENDBRANCH  42  43
ENDBRANCH  40  42
BRANCH  40  53
HETATM   53  C   UNL     1       1.043   6.427   4.019  1.00  0.00     0.137 C 
HETATM   54  O   UNL     1       0.497   7.498   3.773  1.00  0.00    -0.297 OA
BRANCH  53  55
HETATM   55  C   UNL     1       1.716   5.660   2.899  1.00  0.00     0.109 C 
BRANCH  55  56
HETATM   56  C   UNL     1       2.759   6.491   2.150  1.00  0.00     0.279 C 
BRANCH  56  57
HETATM   57  N   UNL     1       3.838   5.598   1.677  1.00  0.00     0.080 N 
HETATM   58  C   UNL     1       4.863   6.354   0.952  1.00  0.00     0.309 C 
HETATM   59  C   UNL     1       4.449   4.866   2.781  1.00  0.00     0.309 C 
ENDBRANCH  56  57
ENDBRANCH  55  56
ENDBRANCH  53  55
ENDBRANCH  40  53
ENDBRANCH  39  40
ENDBRANCH  37  39
BRANCH  37  60
HETATM   60  C   UNL     1      -1.504   7.505   8.216  1.00  0.00     0.137 C 
HETATM   61  O   UNL     1      -2.603   7.014   7.931  1.00  0.00    -0.297 OA
BRANCH  60  62
HETATM   62  C   UNL     1      -1.474   8.878   8.841  1.00  0.00     0.109 C 
BRANCH  62  63
HETATM   63  C   UNL     1      -0.982   9.983   7.895  1.00  0.00     0.279 C 
BRANCH  63  64
HETATM   64  N   UNL     1      -1.210  11.330   8.461  1.00  0.00     0.080 N 
HETATM   65  C   UNL     1      -0.011  11.838   9.133  1.00  0.00     0.309 C 
HETATM   66  C   UNL     1      -1.602  12.261   7.399  1.00  0.00     0.309 C 
ENDBRANCH  63  64
ENDBRANCH  62  63
ENDBRANCH  60  62
ENDBRANCH  37  60
ENDBRANCH  36  37
ENDBRANCH  34  36
BRANCH  34  67
HETATM   67  C   UNL     1       2.646   6.435  10.673  1.00  0.00     0.137 C 
HETATM   68  O   UNL     1       3.473   6.868  11.483  1.00  0.00    -0.297 OA
BRANCH  67  69
HETATM   69  C   UNL     1       2.888   5.068  10.017  1.00  0.00     0.109 C 
BRANCH  69  70
HETATM   70  C   UNL     1       3.581   4.062  10.968  1.00  0.00     0.279 C 
BRANCH  70  71
HETATM   71  N   UNL     1       2.901   3.646  12.212  1.00  0.00     0.080 N 
HETATM   72  C   UNL     1       2.626   2.220  12.265  1.00  0.00     0.309 C 
HETATM   73  C   UNL     1       3.745   3.995  13.365  1.00  0.00     0.309 C 
ENDBRANCH  70  71
ENDBRANCH  69  70
ENDBRANCH  67  69
ENDBRANCH  34  67
ENDBRANCH  33  34
ENDBRANCH  31  33
BRANCH  31  74
HETATM   74  C   UNL     1      -1.567   6.384  12.992  1.00  0.00     0.139 C 
HETATM   75  O   UNL     1      -2.253   7.303  12.526  1.00  0.00    -0.297 OA
BRANCH  74  76
HETATM   76  C   UNL     1      -2.050   5.697  14.250  1.00  0.00     0.109 C 
BRANCH  76  77
HETATM   77  C   UNL     1      -2.422   6.749  15.279  1.00  0.00     0.279 C 
BRANCH  77  78
HETATM   78  N   UNL     1      -2.202   6.347  16.676  1.00  0.00     0.080 N 
HETATM   79  C   UNL     1      -0.778   6.348  17.013  1.00  0.00     0.309 C 
HETATM   80  C   UNL     1      -2.761   5.009  16.902  1.00  0.00     0.309 C 
ENDBRANCH  77  78
ENDBRANCH  76  77
ENDBRANCH  74  76
ENDBRANCH  31  74
ENDBRANCH  30  31
ENDBRANCH  29  30
ENDBRANCH  23  29
ENDBRANCH  17  18
ENDBRANCH  11  17
BRANCH  12  81
HETATM   81  O   UNL     1      -1.178  10.268  12.467  1.00  0.00    -0.390 OA
HETATM   82  H   UNL     1      -1.928   9.759  12.098  1.00  0.00     0.210 HD
ENDBRANCH  12  81
BRANCH  13  83
HETATM   83  O   UNL     1      -3.704   9.676  13.722  1.00  0.00    -0.388 OA
HETATM   84  H   UNL     1      -4.505   9.648  14.267  1.00  0.00     0.210 HD
ENDBRANCH  13  83
ENDBRANCH   7   8
ENDBRANCH   1   7
BRANCH   2  85
HETATM   85  C   UNL     1      -2.564  14.865  11.421  1.00  0.00     0.198 C 
BRANCH  85  86
HETATM   86  O   UNL     1      -1.304  14.208  11.398  1.00  0.00    -0.398 OA
HETATM   87  H   UNL     1      -1.279  13.573  12.136  1.00  0.00     0.209 HD
ENDBRANCH  85  86
ENDBRANCH   2  85
BRANCH   3  88
HETATM   88  O   UNL     1      -6.485  13.223  12.969  1.00  0.00    -0.390 OA
HETATM   89  H   UNL     1      -6.289  13.001  12.035  1.00  0.00     0.210 HD
ENDBRANCH   3  88
BRANCH   4  90
HETATM   90  O   UNL     1      -7.199  16.031  12.912  1.00  0.00    -0.388 OA
HETATM   91  H   UNL     1      -7.192  16.615  13.685  1.00  0.00     0.210 HD
ENDBRANCH   4  90
BRANCH   5  92
HETATM   92  O   UNL     1      -6.715  15.472  10.317  1.00  0.00    -0.348 OA
BRANCH  92  93
HETATM   93  C   UNL     1      -6.812  16.536   9.326  1.00  0.00     0.187 C 
HETATM   94  C   UNL     1      -5.749  17.617   9.592  1.00  0.00     0.180 C 
HETATM   95  O   UNL     1      -4.898  17.853   8.471  1.00  0.00    -0.348 OA
HETATM   96  C   UNL     1      -5.517  18.008   7.195  1.00  0.00     0.292 C 
HETATM   97  C   UNL     1      -6.455  16.810   6.726  1.00  0.00     0.208 C 
HETATM   98  C   UNL     1      -6.562  15.850   7.948  1.00  0.00     0.183 C 
BRANCH  94  99
HETATM   99  C   UNL     1      -6.335  18.957  10.062  1.00  0.00     0.198 C 
BRANCH  99 100
HETATM  100  O   UNL     1      -7.058  18.783  11.279  1.00  0.00    -0.398 OA
HETATM  101  H   UNL     1      -7.891  18.319  11.067  1.00  0.00     0.209 HD
ENDBRANCH  99 100
ENDBRANCH  94  99
BRANCH  96 102
HETATM  102  O   UNL     1      -4.409  18.140   6.306  1.00  0.00    -0.348 OA
BRANCH 102 103
HETATM  103  C   UNL     1      -4.091  19.467   5.914  1.00  0.00     0.187 C 
HETATM  104  C   UNL     1      -2.643  19.807   6.322  1.00  0.00     0.176 C 
HETATM  105  O   UNL     1      -2.004  20.711   5.390  1.00  0.00    -0.378 OA
HETATM  106  C   UNL     1      -2.897  21.682   4.834  1.00  0.00     0.202 C 
HETATM  107  C   UNL     1      -3.977  21.023   3.947  1.00  0.00     0.173 C 
HETATM  108  C   UNL     1      -4.223  19.562   4.382  1.00  0.00     0.180 C 
BRANCH 104 109
HETATM  109  C   UNL     1      -2.538  20.394   7.735  1.00  0.00     0.198 C 
BRANCH 109 110
HETATM  110  O   UNL     1      -1.522  19.714   8.471  1.00  0.00    -0.398 OA
HETATM  111  H   UNL     1      -1.398  18.850   8.032  1.00  0.00     0.209 HD
ENDBRANCH 109 110
ENDBRANCH 104 109
BRANCH 107 112
HETATM  112  O   UNL     1      -3.630  21.096   2.515  1.00  0.00    -0.391 OA
HETATM  113  H   UNL     1      -4.431  20.978   1.981  1.00  0.00     0.210 HD
ENDBRANCH 107 112
BRANCH 108 114
HETATM  114  O   UNL     1      -3.306  18.681   3.705  1.00  0.00    -0.390 OA
HETATM  115  H   UNL     1      -3.695  18.460   2.838  1.00  0.00     0.210 HD
ENDBRANCH 108 114
ENDBRANCH 102 103
ENDBRANCH  96 102
BRANCH  97 116
HETATM  116  O   UNL     1      -5.913  16.191   5.466  1.00  0.00    -0.369 OA
BRANCH 116 117
HETATM  117  C   UNL     1      -6.024  14.786   5.050  1.00  0.00     0.168 C 
BRANCH 117 118
HETATM  118  C   UNL     1      -7.415  14.168   4.540  1.00  0.00     0.046 C 
HETATM  119  C   UNL     1      -7.145  13.676   3.109  1.00  0.00     0.026 C 
BRANCH 118 120
HETATM  120  C   UNL     1      -8.804  15.042   4.591  1.00  0.00     0.036 C 
BRANCH 120 121
HETATM  121  C   UNL     1      -9.212  16.181   3.449  1.00  0.00     0.019 C 
HETATM  122  C   UNL     1     -10.291  16.995   4.215  1.00  0.00     0.023 C 
BRANCH 121 123
HETATM  123  C   UNL     1      -8.098  17.147   2.940  1.00  0.00     0.137 C 
HETATM  124  O   UNL     1      -7.439  16.809   1.949  1.00  0.00    -0.297 OA
BRANCH 123 125
HETATM  125  C   UNL     1      -7.780  18.480   3.644  1.00  0.00     0.109 C 
BRANCH 125 126
HETATM  126  C   UNL     1      -7.564  19.652   2.659  1.00  0.00     0.279 C 
BRANCH 126 127
HETATM  127  N   UNL     1      -7.556  21.040   3.163  1.00  0.00     0.080 N 
HETATM  128  C   UNL     1      -7.689  21.021   4.625  1.00  0.00     0.309 C 
HETATM  129  C   UNL     1      -8.625  21.857   2.616  1.00  0.00     0.309 C 
ENDBRANCH 126 127
ENDBRANCH 125 126
ENDBRANCH 123 125
ENDBRANCH 121 123
BRANCH 121 130
HETATM  130  C   UNL     1      -9.861  15.546   2.080  1.00  0.00     0.033 C 
BRANCH 130 131
HETATM  131  C   UNL     1     -10.996  14.323   1.964  1.00  0.00     0.019 C 
HETATM  132  C   UNL     1     -10.281  12.969   2.117  1.00  0.00     0.023 C 
BRANCH 131 133
HETATM  133  C   UNL     1     -12.180  14.313   2.974  1.00  0.00     0.137 C 
HETATM  134  O   UNL     1     -13.132  15.085   2.808  1.00  0.00    -0.297 OA
BRANCH 133 135
HETATM  135  C   UNL     1     -12.219  13.376   4.156  1.00  0.00     0.109 C 
BRANCH 135 136
HETATM  136  C   UNL     1     -12.358  14.071   5.522  1.00  0.00     0.279 C 
BRANCH 136 137
HETATM  137  N   UNL     1     -12.257  13.112   6.643  1.00  0.00     0.080 N 
HETATM  138  C   UNL     1     -13.564  12.498   6.904  1.00  0.00     0.309 C 
HETATM  139  C   UNL     1     -11.776  13.760   7.865  1.00  0.00     0.309 C 
ENDBRANCH 136 137
ENDBRANCH 135 136
ENDBRANCH 133 135
ENDBRANCH 131 133
BRANCH 131 140
HETATM  140  C   UNL     1     -11.634  14.409   0.491  1.00  0.00     0.033 C 
BRANCH 140 141
HETATM  141  C   UNL     1     -11.548  13.358  -0.772  1.00  0.00     0.019 C 
HETATM  142  C   UNL     1     -11.801  14.237  -2.028  1.00  0.00     0.023 C 
BRANCH 141 143
HETATM  143  C   UNL     1     -10.225  12.535  -0.981  1.00  0.00     0.033 C 
BRANCH 143 144
HETATM  144  C   UNL     1      -8.786  13.115  -1.291  1.00  0.00     0.014 C 
HETATM  145  C   UNL     1      -7.799  12.360  -0.357  1.00  0.00     0.023 C 
HETATM  146  C   UNL     1      -8.598  14.601  -0.920  1.00  0.00     0.023 C 
BRANCH 144 147
HETATM  147  C   UNL     1      -8.371  12.935  -2.774  1.00  0.00     0.136 C 
HETATM  148  O   UNL     1      -7.256  13.307  -3.151  1.00  0.00    -0.297 OA
BRANCH 147 149
HETATM  149  C   UNL     1      -9.365  12.390  -3.798  1.00  0.00     0.109 C 
BRANCH 149 150
HETATM  150  C   UNL     1      -8.741  12.354  -5.204  1.00  0.00     0.279 C 
BRANCH 150 151
HETATM  151  N   UNL     1      -9.439  13.237  -6.164  1.00  0.00     0.080 N 
HETATM  152  C   UNL     1     -10.698  13.751  -5.625  1.00  0.00     0.309 C 
HETATM  153  C   UNL     1      -8.576  14.366  -6.532  1.00  0.00     0.309 C 
ENDBRANCH 150 151
ENDBRANCH 149 150
ENDBRANCH 147 149
ENDBRANCH 144 147
ENDBRANCH 143 144
ENDBRANCH 141 143
BRANCH 141 154
HETATM  154  C   UNL     1     -12.784  12.408  -0.663  1.00  0.00     0.137 C 
HETATM  155  O   UNL     1     -13.522  12.194  -1.629  1.00  0.00    -0.297 OA
BRANCH 154 156
HETATM  156  C   UNL     1     -13.188  11.901   0.704  1.00  0.00     0.109 C 
BRANCH 156 157
HETATM  157  C   UNL     1     -13.104  10.378   0.836  1.00  0.00     0.279 C 
BRANCH 157 158
HETATM  158  N   UNL     1     -12.809  10.032   2.243  1.00  0.00     0.080 N 
HETATM  159  C   UNL     1     -12.396   8.638   2.379  1.00  0.00     0.309 C 
HETATM  160  C   UNL     1     -13.967  10.293   3.101  1.00  0.00     0.309 C 
ENDBRANCH 157 158
ENDBRANCH 156 157
ENDBRANCH 154 156
ENDBRANCH 141 154
ENDBRANCH 140 141
ENDBRANCH 131 140
ENDBRANCH 130 131
ENDBRANCH 121 130
ENDBRANCH 120 121
ENDBRANCH 118 120
BRANCH 118 161
HETATM  161  C   UNL     1      -7.609  13.069   5.625  1.00  0.00     0.139 C 
HETATM  162  O   UNL     1      -6.685  12.733   6.377  1.00  0.00    -0.297 OA
BRANCH 161 163
HETATM  163  C   UNL     1      -8.904  12.299   5.700  1.00  0.00     0.109 C 
BRANCH 163 164
HETATM  164  C   UNL     1      -8.611  10.861   6.065  1.00  0.00     0.279 C 
BRANCH 164 165
HETATM  165  N   UNL     1      -9.376   9.851   5.320  1.00  0.00     0.080 N 
HETATM  166  C   UNL     1     -10.816  10.088   5.438  1.00  0.00     0.309 C 
HETATM  167  C   UNL     1      -9.070   8.519   5.849  1.00  0.00     0.309 C 
ENDBRANCH 164 165
ENDBRANCH 163 164
ENDBRANCH 161 163
ENDBRANCH 118 161
ENDBRANCH 117 118
ENDBRANCH 116 117
ENDBRANCH  97 116
BRANCH  98 168
HETATM  168  O   UNL     1      -5.350  15.068   8.039  1.00  0.00    -0.390 OA
HETATM  169  H   UNL     1      -5.328  14.702   8.945  1.00  0.00     0.210 HD
ENDBRANCH  98 168
ENDBRANCH  92  93
ENDBRANCH   5  92
TORSDOF 88
ENDMDL
MODEL 2
REMARK VINA RESULT:      -5.9      2.435      5.306
REMARK WARNING: 32 MAX_TORS EXCEEDED!!!
REMARK  88 active torsions:
REMARK  status: ('A' for Active; 'I' for Inactive)
REMARK    1  A    between atoms: C_1  and  O_28 
REMARK    2  A    between atoms: C_2  and  C_6 
REMARK    3  A    between atoms: C_3  and  O_8 
REMARK    4  A    between atoms: C_4  and  O_10 
REMARK    5  A    between atoms: C_5  and  O_11 
REMARK    6  A    between atoms: C_6  and  O_58 
REMARK    7  A    between atoms: O_11  and  C_18 
REMARK    8  A    between atoms: O_13  and  C_16 
REMARK    9  A    between atoms: C_15  and  C_21 
REMARK   10  A    between atoms: O_17  and  C_20 
REMARK   11  A    between atoms: O_17  and  C_39 
REMARK   12  A    between atoms: O_19  and  C_22 
REMARK   13  A    between atoms: O_19  and  C_153 
REMARK   14  A    between atoms: C_21  and  O_60 
REMARK   15  A    between atoms: O_24  and  C_27 
REMARK   16  A    between atoms: C_26  and  C_32 
REMARK   17  A    between atoms: O_28  and  C_31 
REMARK   18  A    between atoms: C_29  and  O_49 
REMARK   19  A    between atoms: O_30  and  C_33 
REMARK   20  A    between atoms: C_32  and  O_56 
REMARK   21  A    between atoms: O_35  and  C_38 
REMARK   22  A    between atoms: C_37  and  C_42 
REMARK   23  A    between atoms: O_40  and  C_43 
REMARK   24  A    between atoms: C_42  and  O_62 
REMARK   25  A    between atoms: O_45  and  C_48 
REMARK   26  A    between atoms: C_47  and  C_53 
REMARK   27  A    between atoms: O_49  and  C_52 
REMARK   28  A    between atoms: O_51  and  C_54 
REMARK   29  A    between atoms: O_51  and  C_64 
REMARK   30  A    between atoms: C_53  and  O_55 
REMARK   31  A    between atoms: C_64  and  C_65 
REMARK   32  A    between atoms: C_65  and  C_66 
REMARK   33  A    between atoms: C_65  and  C_75 
REMARK   34  A    between atoms: C_66  and  C_67 
REMARK   35  A    between atoms: C_67  and  C_68 
REMARK   36  A    between atoms: C_67  and  C_79 
REMARK   37  A    between atoms: C_68  and  C_69 
REMARK   38  A    between atoms: C_69  and  C_70 
REMARK   39  A    between atoms: C_69  and  C_83 
REMARK   40  A    between atoms: C_70  and  C_71 
REMARK   41  A    between atoms: C_71  and  C_72 
REMARK   42  A    between atoms: C_71  and  C_87 
REMARK   43  A    between atoms: C_72  and  C_73 
REMARK   44  A    between atoms: C_73  and  C_91 
REMARK   45  A    between atoms: C_75  and  C_76 
REMARK   46  A    between atoms: C_76  and  C_77 
REMARK   47  A    between atoms: C_77  and  N_95 
REMARK   48  A    between atoms: C_79  and  C_80 
REMARK   49  A    between atoms: C_80  and  C_81 
REMARK   50  A    between atoms: C_81  and  N_96 
REMARK   51  A    between atoms: C_83  and  C_84 
REMARK   52  A    between atoms: C_84  and  C_85 
REMARK   53  A    between atoms: C_85  and  N_97 
REMARK   54  A    between atoms: C_87  and  C_88 
REMARK   55  A    between atoms: C_88  and  C_89 
REMARK   56  A    between atoms: C_89  and  N_98 
REMARK   57  A    between atoms: C_91  and  C_92 
REMARK   58  A    between atoms: C_92  and  C_93 
REMARK   59  A    between atoms: C_93  and  N_99 
REMARK   60  A    between atoms: N_118  and  C_121 
REMARK   61  A    between atoms: C_121  and  C_127 
REMARK   62  A    between atoms: C_122  and  C_127 
REMARK   63  A    between atoms: C_122  and  C_134 
REMARK   64  A    between atoms: N_124  and  C_131 
REMARK   65  A    between atoms: C_128  and  C_129 
REMARK   66  A    between atoms: C_128  and  C_138 
REMARK   67  A    between atoms: C_129  and  C_131 
REMARK   68  A    between atoms: N_133  and  C_144 
REMARK   69  A    between atoms: C_134  and  C_145 
REMARK   70  A    between atoms: C_134  and  C_151 
REMARK   71  A    between atoms: C_136  and  C_144 
REMARK   72  A    between atoms: C_136  and  C_148 
REMARK   73  A    between atoms: C_138  and  C_154 
REMARK   74  A    between atoms: C_138  and  C_145 
REMARK   75  A    between atoms: C_140  and  C_148 
REMARK   76  A    between atoms: C_140  and  C_141 
REMARK   77  A    between atoms: C_141  and  C_155 
REMARK   78  A    between atoms: C_142  and  C_153 
REMARK   79  A    between atoms: C_142  and  C_151 
REMARK   80  A    between atoms: C_142  and  C_152 
REMARK   81  A    between atoms: C_143  and  N_149 
REMARK   82  A    between atoms: C_143  and  C_146 
REMARK   83  A    between atoms: C_146  and  C_152 
REMARK   84  A    between atoms: C_154  and  C_155 
REMARK   85  A    between atoms: C_155  and  C_161 
REMARK   86  A    between atoms: C_158  and  C_163 
REMARK   87  A    between atoms: C_158  and  C_161 
REMARK   88  A    between atoms: N_159  and  C_163 
ROOT
HETATM    1  C   UNL     1      -4.077  14.522  11.465  1.00  0.00     0.187 C 
HETATM    2  C   UNL     1      -3.917  14.278   9.948  1.00  0.00     0.180 C 
HETATM    3  C   UNL     1      -5.505  15.003  11.797  1.00  0.00     0.183 C 
HETATM    4  C   UNL     1      -5.985  16.091  10.806  1.00  0.00     0.204 C 
HETATM    5  C   UNL     1      -5.862  15.591   9.324  1.00  0.00     0.292 C 
HETATM    6  O   UNL     1      -5.179  14.334   9.258  1.00  0.00    -0.348 OA
ENDROOT
BRANCH   1   7
HETATM    7  O   UNL     1      -3.823  13.287  12.149  1.00  0.00    -0.348 OA
BRANCH   7   8
HETATM    8  C   UNL     1      -2.661  13.285  12.992  1.00  0.00     0.292 C 
HETATM    9  O   UNL     1      -1.560  13.649  12.164  1.00  0.00    -0.348 OA
HETATM   10  C   UNL     1      -0.244  13.458  12.707  1.00  0.00     0.180 C 
HETATM   11  C   UNL     1      -0.050  12.147  13.498  1.00  0.00     0.187 C 
HETATM   12  C   UNL     1      -1.218  11.187  13.303  1.00  0.00     0.183 C 
HETATM   13  C   UNL     1      -2.521  11.891  13.695  1.00  0.00     0.204 C 
BRANCH  10  14
HETATM   14  C   UNL     1       0.120  14.695  13.544  1.00  0.00     0.198 C 
BRANCH  14  15
HETATM   15  O   UNL     1      -0.753  15.782  13.236  1.00  0.00    -0.398 OA
HETATM   16  H   UNL     1      -1.453  15.423  12.657  1.00  0.00     0.209 HD
ENDBRANCH  14  15
ENDBRANCH  10  14
BRANCH  11  17
HETATM   17  O   UNL     1       1.124  11.468  13.023  1.00  0.00    -0.348 OA
BRANCH  17  18
HETATM   18  C   UNL     1       2.179  11.431  13.977  1.00  0.00     0.292 C 
HETATM   19  O   UNL     1       3.428  11.587  13.291  1.00  0.00    -0.351 OA
HETATM   20  C   UNL     1       4.492  11.995  14.174  1.00  0.00     0.150 C 
HETATM   21  C   UNL     1       4.325  11.356  15.566  1.00  0.00     0.068 C 
HETATM   22  C   UNL     1       3.638   9.988  15.425  1.00  0.00     0.154 C 
HETATM   23  C   UNL     1       2.192  10.102  14.836  1.00  0.00     0.205 C 
BRANCH  20  24
HETATM   24  C   UNL     1       4.646  13.523  14.171  1.00  0.00     0.196 C 
BRANCH  24  25
HETATM   25  O   UNL     1       4.510  14.063  12.859  1.00  0.00    -0.398 OA
HETATM   26  H   UNL     1       4.134  14.955  12.913  1.00  0.00     0.209 HD
ENDBRANCH  24  25
ENDBRANCH  20  24
BRANCH  22  27
HETATM   27  O   UNL     1       4.462   9.191  14.558  1.00  0.00    -0.393 OA
HETATM   28  H   UNL     1       4.046   9.197  13.673  1.00  0.00     0.210 HD
ENDBRANCH  22  27
BRANCH  23  29
HETATM   29  O   UNL     1       1.820   8.881  14.052  1.00  0.00    -0.377 OA
BRANCH  29  30
HETATM   30  C   UNL     1       1.358   7.682  14.801  1.00  0.00     0.185 C 
BRANCH  30  31
HETATM   31  C   UNL     1       1.756   6.266  14.135  1.00  0.00     0.039 C 
HETATM   32  C   UNL     1       3.201   5.918  14.523  1.00  0.00     0.025 C 
BRANCH  31  33
HETATM   33  C   UNL     1       1.564   6.258  12.523  1.00  0.00     0.036 C 
BRANCH  33  34
HETATM   34  C   UNL     1       2.694   5.797  11.443  1.00  0.00     0.019 C 
HETATM   35  C   UNL     1       4.024   6.219  12.123  1.00  0.00     0.023 C 
BRANCH  34  36
HETATM   36  C   UNL     1       2.474   6.624  10.064  1.00  0.00     0.033 C 
BRANCH  36  37
HETATM   37  C   UNL     1       1.076   6.934   9.265  1.00  0.00     0.019 C 
HETATM   38  C   UNL     1       0.088   5.778   9.490  1.00  0.00     0.023 C 
BRANCH  37  39
HETATM   39  C   UNL     1       1.477   6.995   7.714  1.00  0.00     0.033 C 
BRANCH  39  40
HETATM   40  C   UNL     1       1.058   6.031   6.472  1.00  0.00     0.019 C 
HETATM   41  C   UNL     1       2.277   5.088   6.283  1.00  0.00     0.023 C 
BRANCH  40  42
HETATM   42  C   UNL     1      -0.244   5.175   6.618  1.00  0.00     0.033 C 
BRANCH  42  43
HETATM   43  C   UNL     1      -1.052   4.484   5.453  1.00  0.00     0.014 C 
HETATM   44  C   UNL     1      -1.786   3.272   6.090  1.00  0.00     0.023 C 
HETATM   45  C   UNL     1      -0.176   3.865   4.347  1.00  0.00     0.023 C 
BRANCH  43  46
HETATM   46  C   UNL     1      -2.066   5.447   4.787  1.00  0.00     0.136 C 
HETATM   47  O   UNL     1      -2.642   6.302   5.467  1.00  0.00    -0.297 OA
BRANCH  46  48
HETATM   48  C   UNL     1      -2.434   5.286   3.315  1.00  0.00     0.109 C 
BRANCH  48  49
HETATM   49  C   UNL     1      -2.545   6.657   2.629  1.00  0.00     0.279 C 
BRANCH  49  50
HETATM   50  N   UNL     1      -3.846   6.856   1.956  1.00  0.00     0.080 N 
HETATM   51  C   UNL     1      -3.699   6.986   0.506  1.00  0.00     0.309 C 
HETATM   52  C   UNL     1      -4.745   5.734   2.251  1.00  0.00     0.309 C 
ENDBRANCH  49  50
ENDBRANCH  48  49
ENDBRANCH  46  48
ENDBRANCH  43  46
ENDBRANCH  42  43
ENDBRANCH  40  42
BRANCH  40  53
HETATM   53  C   UNL     1       1.015   6.930   5.192  1.00  0.00     0.137 C 
HETATM   54  O   UNL     1       0.247   7.882   5.098  1.00  0.00    -0.297 OA
BRANCH  53  55
HETATM   55  C   UNL     1       1.801   6.484   3.976  1.00  0.00     0.109 C 
BRANCH  55  56
HETATM   56  C   UNL     1       1.133   6.879   2.658  1.00  0.00     0.279 C 
BRANCH  56  57
HETATM   57  N   UNL     1       1.762   6.125   1.553  1.00  0.00     0.080 N 
HETATM   58  C   UNL     1       0.761   5.362   0.803  1.00  0.00     0.309 C 
HETATM   59  C   UNL     1       2.492   7.008   0.650  1.00  0.00     0.309 C 
ENDBRANCH  56  57
ENDBRANCH  55  56
ENDBRANCH  53  55
ENDBRANCH  40  53
ENDBRANCH  39  40
ENDBRANCH  37  39
BRANCH  37  60
HETATM   60  C   UNL     1       0.315   8.239   9.626  1.00  0.00     0.137 C 
HETATM   61  O   UNL     1       0.722   8.947  10.554  1.00  0.00    -0.297 OA
BRANCH  60  62
HETATM   62  C   UNL     1      -0.900   8.695   8.856  1.00  0.00     0.109 C 
BRANCH  62  63
HETATM   63  C   UNL     1      -0.630   9.871   7.906  1.00  0.00     0.279 C 
BRANCH  63  64
HETATM   64  N   UNL     1      -1.009  11.164   8.515  1.00  0.00     0.080 N 
HETATM   65  C   UNL     1       0.169  11.913   8.960  1.00  0.00     0.309 C 
HETATM   66  C   UNL     1      -1.760  11.973   7.549  1.00  0.00     0.309 C 
ENDBRANCH  63  64
ENDBRANCH  62  63
ENDBRANCH  60  62
ENDBRANCH  37  60
ENDBRANCH  36  37
ENDBRANCH  34  36
BRANCH  34  67
HETATM   67  C   UNL     1       2.789   4.293  11.048  1.00  0.00     0.137 C 
HETATM   68  O   UNL     1       3.432   3.990  10.035  1.00  0.00    -0.297 OA
BRANCH  67  69
HETATM   69  C   UNL     1       2.089   3.184  11.847  1.00  0.00     0.109 C 
BRANCH  69  70
HETATM   70  C   UNL     1       2.941   2.674  13.035  1.00  0.00     0.279 C 
BRANCH  70  71
HETATM   71  N   UNL     1       2.330   1.783  14.042  1.00  0.00     0.080 N 
HETATM   72  C   UNL     1       2.528   0.371  13.755  1.00  0.00     0.309 C 
HETATM   73  C   UNL     1       2.914   2.071  15.361  1.00  0.00     0.309 C 
ENDBRANCH  70  71
ENDBRANCH  69  70
ENDBRANCH  67  69
ENDBRANCH  34  67
ENDBRANCH  33  34
ENDBRANCH  31  33
BRANCH  31  74
HETATM   74  C   UNL     1       0.686   5.297  14.700  1.00  0.00     0.139 C 
HETATM   75  O   UNL     1      -0.213   4.859  13.969  1.00  0.00    -0.297 OA
BRANCH  74  76
HETATM   76  C   UNL     1       0.626   4.978  16.177  1.00  0.00     0.109 C 
BRANCH  76  77
HETATM   77  C   UNL     1      -0.808   5.110  16.657  1.00  0.00     0.279 C 
BRANCH  77  78
HETATM   78  N   UNL     1      -1.410   6.433  16.440  1.00  0.00     0.080 N 
HETATM   79  C   UNL     1      -1.289   7.274  17.632  1.00  0.00     0.309 C 
HETATM   80  C   UNL     1      -2.825   6.284  16.084  1.00  0.00     0.309 C 
ENDBRANCH  77  78
ENDBRANCH  76  77
ENDBRANCH  74  76
ENDBRANCH  31  74
ENDBRANCH  30  31
ENDBRANCH  29  30
ENDBRANCH  23  29
ENDBRANCH  17  18
ENDBRANCH  11  17
BRANCH  12  81
HETATM   81  O   UNL     1      -1.262  10.708  11.952  1.00  0.00    -0.390 OA
HETATM   82  H   UNL     1      -1.710  11.418  11.448  1.00  0.00     0.210 HD
ENDBRANCH  12  81
BRANCH  13  83
HETATM   83  O   UNL     1      -3.661  10.966  13.528  1.00  0.00    -0.388 OA
HETATM   84  H   UNL     1      -3.538  10.445  12.719  1.00  0.00     0.210 HD
ENDBRANCH  13  83
ENDBRANCH   7   8
ENDBRANCH   1   7
BRANCH   2  85
HETATM   85  C   UNL     1      -2.869  15.232   9.345  1.00  0.00     0.198 C 
BRANCH  85  86
HETATM   86  O   UNL     1      -1.545  14.782   9.592  1.00  0.00    -0.398 OA
HETATM   87  H   UNL     1      -1.523  13.817   9.467  1.00  0.00     0.209 HD
ENDBRANCH  85  86
ENDBRANCH   2  85
BRANCH   3  88
HETATM   88  O   UNL     1      -6.427  13.900  11.802  1.00  0.00    -0.390 OA
HETATM   89  H   UNL     1      -6.701  13.765  12.734  1.00  0.00     0.210 HD
ENDBRANCH   3  88
BRANCH   4  90
HETATM   90  O   UNL     1      -7.346  16.569  11.148  1.00  0.00    -0.388 OA
HETATM   91  H   UNL     1      -7.835  15.860  11.593  1.00  0.00     0.210 HD
ENDBRANCH   4  90
BRANCH   5  92
HETATM   92  O   UNL     1      -7.162  15.378   8.734  1.00  0.00    -0.348 OA
BRANCH  92  93
HETATM   93  C   UNL     1      -7.289  14.239   7.834  1.00  0.00     0.187 C 
HETATM   94  C   UNL     1      -8.577  13.454   8.138  1.00  0.00     0.180 C 
HETATM   95  O   UNL     1      -9.432  13.321   7.003  1.00  0.00    -0.348 OA
HETATM   96  C   UNL     1      -8.836  12.921   5.772  1.00  0.00     0.292 C 
HETATM   97  C   UNL     1      -7.637  13.831   5.250  1.00  0.00     0.208 C 
HETATM   98  C   UNL     1      -7.342  14.843   6.396  1.00  0.00     0.183 C 
BRANCH  94  99
HETATM   99  C   UNL     1      -8.325  12.061   8.736  1.00  0.00     0.198 C 
BRANCH  99 100
HETATM  100  O   UNL     1      -7.960  12.169  10.111  1.00  0.00    -0.398 OA
HETATM  101  H   UNL     1      -8.149  13.085  10.397  1.00  0.00     0.209 HD
ENDBRANCH  99 100
ENDBRANCH  94  99
BRANCH  96 102
HETATM  102  O   UNL     1      -9.923  12.967   4.849  1.00  0.00    -0.348 OA
BRANCH 102 103
HETATM  103  C   UNL     1     -10.834  11.881   4.919  1.00  0.00     0.187 C 
HETATM  104  C   UNL     1     -12.256  12.360   4.559  1.00  0.00     0.176 C 
HETATM  105  O   UNL     1     -13.030  11.337   3.888  1.00  0.00    -0.378 OA
HETATM  106  C   UNL     1     -12.758  10.014   4.359  1.00  0.00     0.202 C 
HETATM  107  C   UNL     1     -11.311   9.579   4.038  1.00  0.00     0.173 C 
HETATM  108  C   UNL     1     -10.387  10.810   3.907  1.00  0.00     0.180 C 
BRANCH 104 109
HETATM  109  C   UNL     1     -13.046  12.863   5.773  1.00  0.00     0.198 C 
BRANCH 109 110
HETATM  110  O   UNL     1     -12.224  13.715   6.570  1.00  0.00    -0.398 OA
HETATM  111  H   UNL     1     -12.792  14.461   6.848  1.00  0.00     0.209 HD
ENDBRANCH 109 110
ENDBRANCH 104 109
BRANCH 107 112
HETATM  112  O   UNL     1     -11.246   8.740   2.826  1.00  0.00    -0.391 OA
HETATM  113  H   UNL     1     -11.564   7.847   3.033  1.00  0.00     0.210 HD
ENDBRANCH 107 112
BRANCH 108 114
HETATM  114  O   UNL     1     -10.409  11.303   2.553  1.00  0.00    -0.390 OA
HETATM  115  H   UNL     1      -9.741  10.805   2.047  1.00  0.00     0.210 HD
ENDBRANCH 108 114
ENDBRANCH 102 103
ENDBRANCH  96 102
BRANCH  97 116
HETATM  116  O   UNL     1      -7.993  14.446   3.924  1.00  0.00    -0.369 OA
BRANCH 116 117
HETATM  117  C   UNL     1      -7.087  14.707   2.796  1.00  0.00     0.168 C 
BRANCH 117 118
HETATM  118  C   UNL     1      -7.268  15.994   1.854  1.00  0.00     0.046 C 
HETATM  119  C   UNL     1      -8.280  16.895   2.581  1.00  0.00     0.026 C 
BRANCH 118 120
HETATM  120  C   UNL     1      -7.675  15.839   0.271  1.00  0.00     0.036 C 
BRANCH 120 121
HETATM  121  C   UNL     1      -9.177  15.341  -0.245  1.00  0.00     0.019 C 
HETATM  122  C   UNL     1      -9.463  14.184   0.753  1.00  0.00     0.023 C 
BRANCH 121 123
HETATM  123  C   UNL     1     -10.350  16.368  -0.199  1.00  0.00     0.137 C 
HETATM  124  O   UNL     1     -10.235  17.415  -0.848  1.00  0.00    -0.297 OA
BRANCH 123 125
HETATM  125  C   UNL     1     -11.618  16.131   0.644  1.00  0.00     0.109 C 
BRANCH 125 126
HETATM  126  C   UNL     1     -12.917  16.541  -0.087  1.00  0.00     0.279 C 
BRANCH 126 127
HETATM  127  N   UNL     1     -13.915  17.378   0.610  1.00  0.00     0.080 N 
HETATM  128  C   UNL     1     -13.269  18.614   1.069  1.00  0.00     0.309 C 
HETATM  129  C   UNL     1     -14.517  16.721   1.757  1.00  0.00     0.309 C 
ENDBRANCH 126 127
ENDBRANCH 125 126
ENDBRANCH 123 125
ENDBRANCH 121 123
BRANCH 121 130
HETATM  130  C   UNL     1      -9.193  14.767  -1.783  1.00  0.00     0.033 C 
BRANCH 130 131
HETATM  131  C   UNL     1     -10.116  13.512  -2.392  1.00  0.00     0.019 C 
HETATM  132  C   UNL     1      -9.438  12.180  -2.030  1.00  0.00     0.023 C 
BRANCH 131 133
HETATM  133  C   UNL     1     -11.598  13.393  -1.933  1.00  0.00     0.137 C 
HETATM  134  O   UNL     1     -12.474  14.041  -2.518  1.00  0.00    -0.297 OA
BRANCH 133 135
HETATM  135  C   UNL     1     -12.016  12.494  -0.795  1.00  0.00     0.109 C 
BRANCH 135 136
HETATM  136  C   UNL     1     -13.412  11.867  -0.952  1.00  0.00     0.279 C 
BRANCH 136 137
HETATM  137  N   UNL     1     -14.375  12.410   0.031  1.00  0.00     0.080 N 
HETATM  138  C   UNL     1     -15.311  13.327  -0.629  1.00  0.00     0.309 C 
HETATM  139  C   UNL     1     -13.695  13.116   1.119  1.00  0.00     0.309 C 
ENDBRANCH 136 137
ENDBRANCH 135 136
ENDBRANCH 133 135
ENDBRANCH 131 133
BRANCH 131 140
HETATM  140  C   UNL     1     -10.129  13.668  -3.992  1.00  0.00     0.033 C 
BRANCH 140 141
HETATM  141  C   UNL     1      -9.809  14.974  -4.940  1.00  0.00     0.019 C 
HETATM  142  C   UNL     1     -10.497  16.161  -4.213  1.00  0.00     0.023 C 
BRANCH 141 143
HETATM  143  C   UNL     1      -8.309  15.349  -5.227  1.00  0.00     0.033 C 
BRANCH 143 144
HETATM  144  C   UNL     1      -7.214  14.429  -5.904  1.00  0.00     0.014 C 
HETATM  145  C   UNL     1      -7.368  14.619  -7.439  1.00  0.00     0.023 C 
HETATM  146  C   UNL     1      -7.422  12.916  -5.686  1.00  0.00     0.023 C 
BRANCH 144 147
HETATM  147  C   UNL     1      -5.771  14.784  -5.458  1.00  0.00     0.136 C 
HETATM  148  O   UNL     1      -5.578  15.738  -4.700  1.00  0.00    -0.297 OA
BRANCH 147 149
HETATM  149  C   UNL     1      -4.574  14.023  -6.025  1.00  0.00     0.109 C 
BRANCH 149 150
HETATM  150  C   UNL     1      -3.391  14.972  -6.281  1.00  0.00     0.279 C 
BRANCH 150 151
HETATM  151  N   UNL     1      -3.012  15.044  -7.709  1.00  0.00     0.080 N 
HETATM  152  C   UNL     1      -3.521  13.904  -8.473  1.00  0.00     0.309 C 
HETATM  153  C   UNL     1      -3.517  16.287  -8.304  1.00  0.00     0.309 C 
ENDBRANCH 150 151
ENDBRANCH 149 150
ENDBRANCH 147 149
ENDBRANCH 144 147
ENDBRANCH 143 144
ENDBRANCH 141 143
BRANCH 141 154
HETATM  154  C   UNL     1     -10.598  14.777  -6.274  1.00  0.00     0.137 C 
HETATM  155  O   UNL     1     -10.765  15.706  -7.070  1.00  0.00    -0.297 OA
BRANCH 154 156
HETATM  156  C   UNL     1     -11.334  13.473  -6.493  1.00  0.00     0.109 C 
BRANCH 156 157
HETATM  157  C   UNL     1     -12.773  13.661  -6.978  1.00  0.00     0.279 C 
BRANCH 157 158
HETATM  158  N   UNL     1     -13.689  13.559  -5.822  1.00  0.00     0.080 N 
HETATM  159  C   UNL     1     -14.780  12.623  -6.081  1.00  0.00     0.309 C 
HETATM  160  C   UNL     1     -14.235  14.870  -5.467  1.00  0.00     0.309 C 
ENDBRANCH 157 158
ENDBRANCH 156 157
ENDBRANCH 154 156
ENDBRANCH 141 154
ENDBRANCH 140 141
ENDBRANCH 131 140
ENDBRANCH 130 131
ENDBRANCH 121 130
ENDBRANCH 120 121
ENDBRANCH 118 120
BRANCH 118 161
HETATM  161  C   UNL     1      -5.794  16.490   1.828  1.00  0.00     0.139 C 
HETATM  162  O   UNL     1      -5.437  17.422   1.095  1.00  0.00    -0.297 OA
BRANCH 161 163
HETATM  163  C   UNL     1      -4.734  15.758   2.614  1.00  0.00     0.109 C 
BRANCH 163 164
HETATM  164  C   UNL     1      -4.240  16.643   3.735  1.00  0.00     0.279 C 
BRANCH 164 165
HETATM  165  N   UNL     1      -4.589  16.198   5.092  1.00  0.00     0.080 N 
HETATM  166  C   UNL     1      -4.331  17.250   6.075  1.00  0.00     0.309 C 
HETATM  167  C   UNL     1      -3.788  15.019   5.439  1.00  0.00     0.309 C 
ENDBRANCH 164 165
ENDBRANCH 163 164
ENDBRANCH 161 163
ENDBRANCH 118 161
ENDBRANCH 117 118
ENDBRANCH 116 117
ENDBRANCH  97 116
BRANCH  98 168
HETATM  168  O   UNL     1      -8.344  15.883   6.375  1.00  0.00    -0.390 OA
HETATM  169  H   UNL     1      -8.519  16.076   5.432  1.00  0.00     0.210 HD
ENDBRANCH  98 168
ENDBRANCH  92  93
ENDBRANCH   5  92
TORSDOF 88
ENDMDL
MODEL 3
REMARK VINA RESULT:      -5.7      3.326      6.502
REMARK WARNING: 32 MAX_TORS EXCEEDED!!!
REMARK  88 active torsions:
REMARK  status: ('A' for Active; 'I' for Inactive)
REMARK    1  A    between atoms: C_1  and  O_28 
REMARK    2  A    between atoms: C_2  and  C_6 
REMARK    3  A    between atoms: C_3  and  O_8 
REMARK    4  A    between atoms: C_4  and  O_10 
REMARK    5  A    between atoms: C_5  and  O_11 
REMARK    6  A    between atoms: C_6  and  O_58 
REMARK    7  A    between atoms: O_11  and  C_18 
REMARK    8  A    between atoms: O_13  and  C_16 
REMARK    9  A    between atoms: C_15  and  C_21 
REMARK   10  A    between atoms: O_17  and  C_20 
REMARK   11  A    between atoms: O_17  and  C_39 
REMARK   12  A    between atoms: O_19  and  C_22 
REMARK   13  A    between atoms: O_19  and  C_153 
REMARK   14  A    between atoms: C_21  and  O_60 
REMARK   15  A    between atoms: O_24  and  C_27 
REMARK   16  A    between atoms: C_26  and  C_32 
REMARK   17  A    between atoms: O_28  and  C_31 
REMARK   18  A    between atoms: C_29  and  O_49 
REMARK   19  A    between atoms: O_30  and  C_33 
REMARK   20  A    between atoms: C_32  and  O_56 
REMARK   21  A    between atoms: O_35  and  C_38 
REMARK   22  A    between atoms: C_37  and  C_42 
REMARK   23  A    between atoms: O_40  and  C_43 
REMARK   24  A    between atoms: C_42  and  O_62 
REMARK   25  A    between atoms: O_45  and  C_48 
REMARK   26  A    between atoms: C_47  and  C_53 
REMARK   27  A    between atoms: O_49  and  C_52 
REMARK   28  A    between atoms: O_51  and  C_54 
REMARK   29  A    between atoms: O_51  and  C_64 
REMARK   30  A    between atoms: C_53  and  O_55 
REMARK   31  A    between atoms: C_64  and  C_65 
REMARK   32  A    between atoms: C_65  and  C_66 
REMARK   33  A    between atoms: C_65  and  C_75 
REMARK   34  A    between atoms: C_66  and  C_67 
REMARK   35  A    between atoms: C_67  and  C_68 
REMARK   36  A    between atoms: C_67  and  C_79 
REMARK   37  A    between atoms: C_68  and  C_69 
REMARK   38  A    between atoms: C_69  and  C_70 
REMARK   39  A    between atoms: C_69  and  C_83 
REMARK   40  A    between atoms: C_70  and  C_71 
REMARK   41  A    between atoms: C_71  and  C_72 
REMARK   42  A    between atoms: C_71  and  C_87 
REMARK   43  A    between atoms: C_72  and  C_73 
REMARK   44  A    between atoms: C_73  and  C_91 
REMARK   45  A    between atoms: C_75  and  C_76 
REMARK   46  A    between atoms: C_76  and  C_77 
REMARK   47  A    between atoms: C_77  and  N_95 
REMARK   48  A    between atoms: C_79  and  C_80 
REMARK   49  A    between atoms: C_80  and  C_81 
REMARK   50  A    between atoms: C_81  and  N_96 
REMARK   51  A    between atoms: C_83  and  C_84 
REMARK   52  A    between atoms: C_84  and  C_85 
REMARK   53  A    between atoms: C_85  and  N_97 
REMARK   54  A    between atoms: C_87  and  C_88 
REMARK   55  A    between atoms: C_88  and  C_89 
REMARK   56  A    between atoms: C_89  and  N_98 
REMARK   57  A    between atoms: C_91  and  C_92 
REMARK   58  A    between atoms: C_92  and  C_93 
REMARK   59  A    between atoms: C_93  and  N_99 
REMARK   60  A    between atoms: N_118  and  C_121 
REMARK   61  A    between atoms: C_121  and  C_127 
REMARK   62  A    between atoms: C_122  and  C_127 
REMARK   63  A    between atoms: C_122  and  C_134 
REMARK   64  A    between atoms: N_124  and  C_131 
REMARK   65  A    between atoms: C_128  and  C_129 
REMARK   66  A    between atoms: C_128  and  C_138 
REMARK   67  A    between atoms: C_129  and  C_131 
REMARK   68  A    between atoms: N_133  and  C_144 
REMARK   69  A    between atoms: C_134  and  C_145 
REMARK   70  A    between atoms: C_134  and  C_151 
REMARK   71  A    between atoms: C_136  and  C_144 
REMARK   72  A    between atoms: C_136  and  C_148 
REMARK   73  A    between atoms: C_138  and  C_154 
REMARK   74  A    between atoms: C_138  and  C_145 
REMARK   75  A    between atoms: C_140  and  C_148 
REMARK   76  A    between atoms: C_140  and  C_141 
REMARK   77  A    between atoms: C_141  and  C_155 
REMARK   78  A    between atoms: C_142  and  C_153 
REMARK   79  A    between atoms: C_142  and  C_151 
REMARK   80  A    between atoms: C_142  and  C_152 
REMARK   81  A    between atoms: C_143  and  N_149 
REMARK   82  A    between atoms: C_143  and  C_146 
REMARK   83  A    between atoms: C_146  and  C_152 
REMARK   84  A    between atoms: C_154  and  C_155 
REMARK   85  A    between atoms: C_155  and  C_161 
REMARK   86  A    between atoms: C_158  and  C_163 
REMARK   87  A    between atoms: C_158  and  C_161 
REMARK   88  A    between atoms: N_159  and  C_163 
ROOT
HETATM    1  C   UNL     1      -4.373  14.553  12.947  1.00  0.00     0.187 C 
HETATM    2  C   UNL     1      -4.185  15.296  11.606  1.00  0.00     0.180 C 
HETATM    3  C   UNL     1      -5.870  14.435  13.305  1.00  0.00     0.183 C 
HETATM    4  C   UNL     1      -6.618  15.770  13.074  1.00  0.00     0.204 C 
HETATM    5  C   UNL     1      -6.403  16.285  11.608  1.00  0.00     0.292 C 
HETATM    6  O   UNL     1      -5.434  15.488  10.918  1.00  0.00    -0.348 OA
ENDROOT
BRANCH   1   7
HETATM    7  O   UNL     1      -3.813  13.239  12.816  1.00  0.00    -0.348 OA
BRANCH   7   8
HETATM    8  C   UNL     1      -2.676  12.976  13.651  1.00  0.00     0.292 C 
HETATM    9  O   UNL     1      -1.526  13.357  12.900  1.00  0.00    -0.348 OA
HETATM   10  C   UNL     1      -0.248  12.942  13.408  1.00  0.00     0.180 C 
HETATM   11  C   UNL     1      -0.204  11.505  13.968  1.00  0.00     0.187 C 
HETATM   12  C   UNL     1      -1.460  10.718  13.611  1.00  0.00     0.183 C 
HETATM   13  C   UNL     1      -2.692  11.478  14.110  1.00  0.00     0.204 C 
BRANCH  10  14
HETATM   14  C   UNL     1       0.223  13.978  14.442  1.00  0.00     0.198 C 
BRANCH  14  15
HETATM   15  O   UNL     1       0.361  13.374  15.728  1.00  0.00    -0.398 OA
HETATM   16  H   UNL     1       1.044  13.883  16.205  1.00  0.00     0.209 HD
ENDBRANCH  14  15
ENDBRANCH  10  14
BRANCH  11  17
HETATM   17  O   UNL     1       0.904  10.797  13.390  1.00  0.00    -0.348 OA
BRANCH  17  18
HETATM   18  C   UNL     1       1.949  10.530  14.319  1.00  0.00     0.292 C 
HETATM   19  O   UNL     1       3.181  11.029  13.783  1.00  0.00    -0.351 OA
HETATM   20  C   UNL     1       4.190  11.203  14.798  1.00  0.00     0.150 C 
HETATM   21  C   UNL     1       4.077  10.109  15.877  1.00  0.00     0.068 C 
HETATM   22  C   UNL     1       3.535   8.817  15.245  1.00  0.00     0.154 C 
HETATM   23  C   UNL     1       2.090   8.993  14.668  1.00  0.00     0.205 C 
BRANCH  20  24
HETATM   24  C   UNL     1       4.186  12.645  15.328  1.00  0.00     0.196 C 
BRANCH  24  25
HETATM   25  O   UNL     1       3.216  12.825  16.356  1.00  0.00    -0.398 OA
HETATM   26  H   UNL     1       2.892  11.959  16.650  1.00  0.00     0.209 HD
ENDBRANCH  24  25
ENDBRANCH  20  24
BRANCH  22  27
HETATM   27  O   UNL     1       4.444   8.450  14.194  1.00  0.00    -0.393 OA
HETATM   28  H   UNL     1       5.092   7.824  14.573  1.00  0.00     0.210 HD
ENDBRANCH  22  27
BRANCH  23  29
HETATM   29  O   UNL     1       1.853   8.090  13.497  1.00  0.00    -0.377 OA
BRANCH  29  30
HETATM   30  C   UNL     1       1.097   6.830  13.726  1.00  0.00     0.185 C 
BRANCH  30  31
HETATM   31  C   UNL     1      -0.014   6.486  12.605  1.00  0.00     0.039 C 
HETATM   32  C   UNL     1      -0.053   4.966  12.389  1.00  0.00     0.025 C 
BRANCH  31  33
HETATM   33  C   UNL     1       0.246   7.270  11.208  1.00  0.00     0.036 C 
BRANCH  33  34
HETATM   34  C   UNL     1       1.385   6.881  10.108  1.00  0.00     0.019 C 
HETATM   35  C   UNL     1       1.815   8.262   9.543  1.00  0.00     0.023 C 
BRANCH  34  36
HETATM   36  C   UNL     1       0.706   5.978   8.943  1.00  0.00     0.033 C 
BRANCH  36  37
HETATM   37  C   UNL     1      -0.406   6.417   7.821  1.00  0.00     0.019 C 
HETATM   38  C   UNL     1      -1.371   5.247   7.567  1.00  0.00     0.023 C 
BRANCH  37  39
HETATM   39  C   UNL     1       0.431   6.715   6.486  1.00  0.00     0.033 C 
BRANCH  39  40
HETATM   40  C   UNL     1       1.077   5.700   5.391  1.00  0.00     0.019 C 
HETATM   41  C   UNL     1       2.446   5.291   5.999  1.00  0.00     0.023 C 
BRANCH  40  42
HETATM   42  C   UNL     1       0.268   4.412   5.022  1.00  0.00     0.033 C 
BRANCH  42  43
HETATM   43  C   UNL     1      -0.700   4.229   3.791  1.00  0.00     0.014 C 
HETATM   44  C   UNL     1      -1.425   2.871   4.002  1.00  0.00     0.023 C 
HETATM   45  C   UNL     1       0.014   4.075   2.433  1.00  0.00     0.023 C 
BRANCH  43  46
HETATM   46  C   UNL     1      -1.727   5.382   3.671  1.00  0.00     0.136 C 
HETATM   47  O   UNL     1      -2.349   5.760   4.669  1.00  0.00    -0.297 OA
BRANCH  46  48
HETATM   48  C   UNL     1      -2.052   5.992   2.310  1.00  0.00     0.109 C 
BRANCH  48  49
HETATM   49  C   UNL     1      -3.377   5.434   1.766  1.00  0.00     0.279 C 
BRANCH  49  50
HETATM   50  N   UNL     1      -4.074   6.384   0.874  1.00  0.00     0.080 N 
HETATM   51  C   UNL     1      -3.205   6.865  -0.201  1.00  0.00     0.309 C 
HETATM   52  C   UNL     1      -5.260   5.750   0.287  1.00  0.00     0.309 C 
ENDBRANCH  49  50
ENDBRANCH  48  49
ENDBRANCH  46  48
ENDBRANCH  43  46
ENDBRANCH  42  43
ENDBRANCH  40  42
BRANCH  40  53
HETATM   53  C   UNL     1       1.413   6.552   4.123  1.00  0.00     0.137 C 
HETATM   54  O   UNL     1       0.693   7.474   3.757  1.00  0.00    -0.297 OA
BRANCH  53  55
HETATM   55  C   UNL     1       2.545   6.089   3.228  1.00  0.00     0.109 C 
BRANCH  55  56
HETATM   56  C   UNL     1       2.557   6.794   1.871  1.00  0.00     0.279 C 
BRANCH  56  57
HETATM   57  N   UNL     1       3.934   6.783   1.333  1.00  0.00     0.080 N 
HETATM   58  C   UNL     1       4.796   5.898   2.119  1.00  0.00     0.309 C 
HETATM   59  C   UNL     1       3.957   6.381  -0.070  1.00  0.00     0.309 C 
ENDBRANCH  56  57
ENDBRANCH  55  56
ENDBRANCH  53  55
ENDBRANCH  40  53
ENDBRANCH  39  40
ENDBRANCH  37  39
BRANCH  37  60
HETATM   60  C   UNL     1      -1.290   7.655   8.131  1.00  0.00     0.137 C 
HETATM   61  O   UNL     1      -2.303   7.525   8.828  1.00  0.00    -0.297 OA
BRANCH  60  62
HETATM   62  C   UNL     1      -0.937   9.035   7.632  1.00  0.00     0.109 C 
BRANCH  62  63
HETATM   63  C   UNL     1      -1.220  10.155   8.644  1.00  0.00     0.279 C 
BRANCH  63  64
HETATM   64  N   UNL     1      -0.394  11.353   8.380  1.00  0.00     0.080 N 
HETATM   65  C   UNL     1       0.253  11.838   9.601  1.00  0.00     0.309 C 
HETATM   66  C   UNL     1       0.631  11.045   7.377  1.00  0.00     0.309 C 
ENDBRANCH  63  64
ENDBRANCH  62  63
ENDBRANCH  60  62
ENDBRANCH  37  60
ENDBRANCH  36  37
ENDBRANCH  34  36
BRANCH  34  67
HETATM   67  C   UNL     1       2.657   6.115  10.580  1.00  0.00     0.137 C 
HETATM   68  O   UNL     1       3.517   6.738  11.213  1.00  0.00    -0.297 OA
BRANCH  67  69
HETATM   69  C   UNL     1       2.893   4.632  10.259  1.00  0.00     0.109 C 
BRANCH  69  70
HETATM   70  C   UNL     1       3.552   3.864  11.431  1.00  0.00     0.279 C 
BRANCH  70  71
HETATM   71  N   UNL     1       2.733   3.465  12.594  1.00  0.00     0.080 N 
HETATM   72  C   UNL     1       2.439   2.041  12.626  1.00  0.00     0.309 C 
HETATM   73  C   UNL     1       3.448   3.814  13.831  1.00  0.00     0.309 C 
ENDBRANCH  70  71
ENDBRANCH  69  70
ENDBRANCH  67  69
ENDBRANCH  34  67
ENDBRANCH  33  34
ENDBRANCH  31  33
BRANCH  31  74
HETATM   74  C   UNL     1      -1.312   7.087  13.200  1.00  0.00     0.139 C 
HETATM   75  O   UNL     1      -2.203   7.518  12.455  1.00  0.00    -0.297 OA
BRANCH  74  76
HETATM   76  C   UNL     1      -1.465   7.292  14.691  1.00  0.00     0.109 C 
BRANCH  76  77
HETATM   77  C   UNL     1      -2.640   6.471  15.188  1.00  0.00     0.279 C 
BRANCH  77  78
HETATM   78  N   UNL     1      -2.275   5.312  16.015  1.00  0.00     0.080 N 
HETATM   79  C   UNL     1      -0.915   5.439  16.539  1.00  0.00     0.309 C 
HETATM   80  C   UNL     1      -2.385   4.082  15.224  1.00  0.00     0.309 C 
ENDBRANCH  77  78
ENDBRANCH  76  77
ENDBRANCH  74  76
ENDBRANCH  31  74
ENDBRANCH  30  31
ENDBRANCH  29  30
ENDBRANCH  23  29
ENDBRANCH  17  18
ENDBRANCH  11  17
BRANCH  12  81
HETATM   81  O   UNL     1      -1.523  10.478  12.198  1.00  0.00    -0.390 OA
HETATM   82  H   UNL     1      -0.725  10.913  11.833  1.00  0.00     0.210 HD
ENDBRANCH  12  81
BRANCH  13  83
HETATM   83  O   UNL     1      -3.916  10.717  13.786  1.00  0.00    -0.388 OA
HETATM   84  H   UNL     1      -3.793   9.787  14.030  1.00  0.00     0.210 HD
ENDBRANCH  13  83
ENDBRANCH   7   8
ENDBRANCH   1   7
BRANCH   2  85
HETATM   85  C   UNL     1      -3.413  16.614  11.811  1.00  0.00     0.198 C 
BRANCH  85  86
HETATM   86  O   UNL     1      -2.984  17.168  10.575  1.00  0.00    -0.398 OA
HETATM   87  H   UNL     1      -3.423  18.029  10.459  1.00  0.00     0.209 HD
ENDBRANCH  85  86
ENDBRANCH   2  85
BRANCH   3  88
HETATM   88  O   UNL     1      -6.494  13.383  12.550  1.00  0.00    -0.390 OA
HETATM   89  H   UNL     1      -6.692  13.750  11.663  1.00  0.00     0.210 HD
ENDBRANCH   3  88
BRANCH   4  90
HETATM   90  O   UNL     1      -8.048  15.658  13.447  1.00  0.00    -0.388 OA
HETATM   91  H   UNL     1      -8.381  14.783  13.193  1.00  0.00     0.210 HD
ENDBRANCH   4  90
BRANCH   5  92
HETATM   92  O   UNL     1      -7.621  16.202  10.839  1.00  0.00    -0.348 OA
BRANCH  92  93
HETATM   93  C   UNL     1      -7.766  15.036   9.977  1.00  0.00     0.187 C 
HETATM   94  C   UNL     1      -9.204  14.490  10.046  1.00  0.00     0.180 C 
HETATM   95  O   UNL     1      -9.837  14.415   8.770  1.00  0.00    -0.348 OA
HETATM   96  C   UNL     1      -9.093  13.838   7.698  1.00  0.00     0.292 C 
HETATM   97  C   UNL     1      -7.679  14.505   7.393  1.00  0.00     0.208 C 
HETATM   98  C   UNL     1      -7.440  15.537   8.535  1.00  0.00     0.183 C 
BRANCH  94  99
HETATM   99  C   UNL     1      -9.312  13.121  10.735  1.00  0.00     0.198 C 
BRANCH  99 100
HETATM  100  O   UNL     1      -9.275  13.275  12.153  1.00  0.00    -0.398 OA
HETATM  101  H   UNL     1      -9.788  14.076  12.379  1.00  0.00     0.209 HD
ENDBRANCH  99 100
ENDBRANCH  94  99
BRANCH  96 102
HETATM  102  O   UNL     1      -9.960  13.992   6.576  1.00  0.00    -0.348 OA
BRANCH 102 103
HETATM  103  C   UNL     1     -10.581  12.803   6.112  1.00  0.00     0.187 C 
HETATM  104  C   UNL     1      -9.870  11.569   6.704  1.00  0.00     0.176 C 
HETATM  105  O   UNL     1     -10.779  10.466   6.935  1.00  0.00    -0.378 OA
HETATM  106  C   UNL     1     -11.812  10.362   5.950  1.00  0.00     0.202 C 
HETATM  107  C   UNL     1     -12.768  11.574   5.995  1.00  0.00     0.173 C 
HETATM  108  C   UNL     1     -12.050  12.814   6.574  1.00  0.00     0.180 C 
BRANCH 104 109
HETATM  109  C   UNL     1      -8.701  11.078   5.843  1.00  0.00     0.198 C 
BRANCH 109 110
HETATM  110  O   UNL     1      -8.307   9.770   6.258  1.00  0.00    -0.398 OA
HETATM  111  H   UNL     1      -7.363   9.681   6.022  1.00  0.00     0.209 HD
ENDBRANCH 109 110
ENDBRANCH 104 109
BRANCH 107 112
HETATM  112  O   UNL     1     -13.998  11.275   6.752  1.00  0.00    -0.391 OA
HETATM  113  H   UNL     1     -13.840  10.521   7.341  1.00  0.00     0.210 HD
ENDBRANCH 107 112
BRANCH 108 114
HETATM  114  O   UNL     1     -12.166  12.827   8.010  1.00  0.00    -0.390 OA
HETATM  115  H   UNL     1     -12.241  11.902   8.309  1.00  0.00     0.210 HD
ENDBRANCH 108 114
ENDBRANCH 102 103
ENDBRANCH  96 102
BRANCH  97 116
HETATM  116  O   UNL     1      -7.665  15.073   5.999  1.00  0.00    -0.369 OA
BRANCH 116 117
HETATM  117  C   UNL     1      -6.485  15.396   5.186  1.00  0.00     0.168 C 
BRANCH 117 118
HETATM  118  C   UNL     1      -6.055  16.915   4.894  1.00  0.00     0.046 C 
HETATM  119  C   UNL     1      -7.370  17.673   4.650  1.00  0.00     0.026 C 
BRANCH 118 120
HETATM  120  C   UNL     1      -4.960  17.280   3.727  1.00  0.00     0.036 C 
BRANCH 120 121
HETATM  121  C   UNL     1      -4.939  16.553   2.230  1.00  0.00     0.019 C 
HETATM  122  C   UNL     1      -3.881  15.438   2.458  1.00  0.00     0.023 C 
BRANCH 121 123
HETATM  123  C   UNL     1      -6.260  15.914   1.702  1.00  0.00     0.137 C 
HETATM  124  O   UNL     1      -6.505  14.741   2.008  1.00  0.00    -0.297 OA
BRANCH 123 125
HETATM  125  C   UNL     1      -7.242  16.685   0.798  1.00  0.00     0.109 C 
BRANCH 125 126
HETATM  126  C   UNL     1      -8.062  15.762  -0.132  1.00  0.00     0.279 C 
BRANCH 126 127
HETATM  127  N   UNL     1      -8.286  16.153  -1.539  1.00  0.00     0.080 N 
HETATM  128  C   UNL     1      -9.542  16.909  -1.633  1.00  0.00     0.309 C 
HETATM  129  C   UNL     1      -8.364  15.020  -2.445  1.00  0.00     0.309 C 
ENDBRANCH 126 127
ENDBRANCH 125 126
ENDBRANCH 123 125
ENDBRANCH 121 123
BRANCH 121 130
HETATM  130  C   UNL     1      -4.449  17.547   1.017  1.00  0.00     0.033 C 
BRANCH 130 131
HETATM  131  C   UNL     1      -3.458  18.888   1.137  1.00  0.00     0.019 C 
HETATM  132  C   UNL     1      -4.296  20.080   1.631  1.00  0.00     0.023 C 
BRANCH 131 133
HETATM  133  C   UNL     1      -2.213  18.808   2.068  1.00  0.00     0.137 C 
HETATM  134  O   UNL     1      -1.532  17.776   2.091  1.00  0.00    -0.297 OA
BRANCH 133 135
HETATM  135  C   UNL     1      -1.792  19.961   2.945  1.00  0.00     0.109 C 
BRANCH 135 136
HETATM  136  C   UNL     1      -0.685  20.849   2.351  1.00  0.00     0.279 C 
BRANCH 136 137
HETATM  137  N   UNL     1      -1.179  22.204   2.025  1.00  0.00     0.080 N 
HETATM  138  C   UNL     1      -1.213  22.396   0.571  1.00  0.00     0.309 C 
HETATM  139  C   UNL     1      -0.340  23.242   2.628  1.00  0.00     0.309 C 
ENDBRANCH 136 137
ENDBRANCH 135 136
ENDBRANCH 133 135
ENDBRANCH 131 133
BRANCH 131 140
HETATM  140  C   UNL     1      -2.919  19.211  -0.343  1.00  0.00     0.033 C 
BRANCH 140 141
HETATM  141  C   UNL     1      -1.880  18.377  -1.307  1.00  0.00     0.019 C 
HETATM  142  C   UNL     1      -0.497  19.039  -1.055  1.00  0.00     0.023 C 
BRANCH 141 143
HETATM  143  C   UNL     1      -1.747  16.823  -1.107  1.00  0.00     0.033 C 
BRANCH 143 144
HETATM  144  C   UNL     1      -0.641  15.878  -1.729  1.00  0.00     0.014 C 
HETATM  145  C   UNL     1      -0.572  14.622  -0.814  1.00  0.00     0.023 C 
HETATM  146  C   UNL     1       0.790  16.453  -1.694  1.00  0.00     0.023 C 
BRANCH 144 147
HETATM  147  C   UNL     1      -0.955  15.464  -3.191  1.00  0.00     0.136 C 
HETATM  148  O   UNL     1      -2.032  14.924  -3.460  1.00  0.00    -0.297 OA
BRANCH 147 149
HETATM  149  C   UNL     1       0.095  15.630  -4.287  1.00  0.00     0.109 C 
BRANCH 149 150
HETATM  150  C   UNL     1       0.678  14.268  -4.700  1.00  0.00     0.279 C 
BRANCH 150 151
HETATM  151  N   UNL     1       0.796  14.116  -6.167  1.00  0.00     0.080 N 
HETATM  152  C   UNL     1      -0.396  13.503  -6.754  1.00  0.00     0.309 C 
HETATM  153  C   UNL     1       1.025  15.422  -6.795  1.00  0.00     0.309 C 
ENDBRANCH 150 151
ENDBRANCH 149 150
ENDBRANCH 147 149
ENDBRANCH 144 147
ENDBRANCH 143 144
ENDBRANCH 141 143
BRANCH 141 154
HETATM  154  C   UNL     1      -2.251  18.718  -2.785  1.00  0.00     0.137 C 
HETATM  155  O   UNL     1      -1.656  19.598  -3.415  1.00  0.00    -0.297 OA
BRANCH 154 156
HETATM  156  C   UNL     1      -3.491  18.090  -3.384  1.00  0.00     0.109 C 
BRANCH 156 157
HETATM  157  C   UNL     1      -4.637  19.084  -3.589  1.00  0.00     0.279 C 
BRANCH 157 158
HETATM  158  N   UNL     1      -5.880  18.508  -3.031  1.00  0.00     0.080 N 
HETATM  159  C   UNL     1      -6.950  18.473  -4.025  1.00  0.00     0.309 C 
HETATM  160  C   UNL     1      -6.322  19.256  -1.852  1.00  0.00     0.309 C 
ENDBRANCH 157 158
ENDBRANCH 156 157
ENDBRANCH 154 156
ENDBRANCH 141 154
ENDBRANCH 140 141
ENDBRANCH 131 140
ENDBRANCH 130 131
ENDBRANCH 121 130
ENDBRANCH 120 121
ENDBRANCH 118 120
BRANCH 118 161
HETATM  161  C   UNL     1      -5.317  17.223   6.229  1.00  0.00     0.139 C 
HETATM  162  O   UNL     1      -5.736  18.081   7.017  1.00  0.00    -0.297 OA
BRANCH 161 163
HETATM  163  C   UNL     1      -3.994  16.562   6.533  1.00  0.00     0.109 C 
BRANCH 163 164
HETATM  164  C   UNL     1      -4.137  15.702   7.768  1.00  0.00     0.279 C 
BRANCH 164 165
HETATM  165  N   UNL     1      -3.459  14.399   7.712  1.00  0.00     0.080 N 
HETATM  166  C   UNL     1      -2.284  14.379   8.585  1.00  0.00     0.309 C 
HETATM  167  C   UNL     1      -3.031  14.131   6.336  1.00  0.00     0.309 C 
ENDBRANCH 164 165
ENDBRANCH 163 164
ENDBRANCH 161 163
ENDBRANCH 118 161
ENDBRANCH 117 118
ENDBRANCH 116 117
ENDBRANCH  97 116
BRANCH  98 168
HETATM  168  O   UNL     1      -8.227  16.719   8.274  1.00  0.00    -0.390 OA
HETATM  169  H   UNL     1      -8.889  16.465   7.600  1.00  0.00     0.210 HD
ENDBRANCH  98 168
ENDBRANCH  92  93
ENDBRANCH   5  92
TORSDOF 88
ENDMDL
MODEL 4
REMARK VINA RESULT:      -5.6      3.309      7.323
REMARK WARNING: 32 MAX_TORS EXCEEDED!!!
REMARK  88 active torsions:
REMARK  status: ('A' for Active; 'I' for Inactive)
REMARK    1  A    between atoms: C_1  and  O_28 
REMARK    2  A    between atoms: C_2  and  C_6 
REMARK    3  A    between atoms: C_3  and  O_8 
REMARK    4  A    between atoms: C_4  and  O_10 
REMARK    5  A    between atoms: C_5  and  O_11 
REMARK    6  A    between atoms: C_6  and  O_58 
REMARK    7  A    between atoms: O_11  and  C_18 
REMARK    8  A    between atoms: O_13  and  C_16 
REMARK    9  A    between atoms: C_15  and  C_21 
REMARK   10  A    between atoms: O_17  and  C_20 
REMARK   11  A    between atoms: O_17  and  C_39 
REMARK   12  A    between atoms: O_19  and  C_22 
REMARK   13  A    between atoms: O_19  and  C_153 
REMARK   14  A    between atoms: C_21  and  O_60 
REMARK   15  A    between atoms: O_24  and  C_27 
REMARK   16  A    between atoms: C_26  and  C_32 
REMARK   17  A    between atoms: O_28  and  C_31 
REMARK   18  A    between atoms: C_29  and  O_49 
REMARK   19  A    between atoms: O_30  and  C_33 
REMARK   20  A    between atoms: C_32  and  O_56 
REMARK   21  A    between atoms: O_35  and  C_38 
REMARK   22  A    between atoms: C_37  and  C_42 
REMARK   23  A    between atoms: O_40  and  C_43 
REMARK   24  A    between atoms: C_42  and  O_62 
REMARK   25  A    between atoms: O_45  and  C_48 
REMARK   26  A    between atoms: C_47  and  C_53 
REMARK   27  A    between atoms: O_49  and  C_52 
REMARK   28  A    between atoms: O_51  and  C_54 
REMARK   29  A    between atoms: O_51  and  C_64 
REMARK   30  A    between atoms: C_53  and  O_55 
REMARK   31  A    between atoms: C_64  and  C_65 
REMARK   32  A    between atoms: C_65  and  C_66 
REMARK   33  A    between atoms: C_65  and  C_75 
REMARK   34  A    between atoms: C_66  and  C_67 
REMARK   35  A    between atoms: C_67  and  C_68 
REMARK   36  A    between atoms: C_67  and  C_79 
REMARK   37  A    between atoms: C_68  and  C_69 
REMARK   38  A    between atoms: C_69  and  C_70 
REMARK   39  A    between atoms: C_69  and  C_83 
REMARK   40  A    between atoms: C_70  and  C_71 
REMARK   41  A    between atoms: C_71  and  C_72 
REMARK   42  A    between atoms: C_71  and  C_87 
REMARK   43  A    between atoms: C_72  and  C_73 
REMARK   44  A    between atoms: C_73  and  C_91 
REMARK   45  A    between atoms: C_75  and  C_76 
REMARK   46  A    between atoms: C_76  and  C_77 
REMARK   47  A    between atoms: C_77  and  N_95 
REMARK   48  A    between atoms: C_79  and  C_80 
REMARK   49  A    between atoms: C_80  and  C_81 
REMARK   50  A    between atoms: C_81  and  N_96 
REMARK   51  A    between atoms: C_83  and  C_84 
REMARK   52  A    between atoms: C_84  and  C_85 
REMARK   53  A    between atoms: C_85  and  N_97 
REMARK   54  A    between atoms: C_87  and  C_88 
REMARK   55  A    between atoms: C_88  and  C_89 
REMARK   56  A    between atoms: C_89  and  N_98 
REMARK   57  A    between atoms: C_91  and  C_92 
REMARK   58  A    between atoms: C_92  and  C_93 
REMARK   59  A    between atoms: C_93  and  N_99 
REMARK   60  A    between atoms: N_118  and  C_121 
REMARK   61  A    between atoms: C_121  and  C_127 
REMARK   62  A    between atoms: C_122  and  C_127 
REMARK   63  A    between atoms: C_122  and  C_134 
REMARK   64  A    between atoms: N_124  and  C_131 
REMARK   65  A    between atoms: C_128  and  C_129 
REMARK   66  A    between atoms: C_128  and  C_138 
REMARK   67  A    between atoms: C_129  and  C_131 
REMARK   68  A    between atoms: N_133  and  C_144 
REMARK   69  A    between atoms: C_134  and  C_145 
REMARK   70  A    between atoms: C_134  and  C_151 
REMARK   71  A    between atoms: C_136  and  C_144 
REMARK   72  A    between atoms: C_136  and  C_148 
REMARK   73  A    between atoms: C_138  and  C_154 
REMARK   74  A    between atoms: C_138  and  C_145 
REMARK   75  A    between atoms: C_140  and  C_148 
REMARK   76  A    between atoms: C_140  and  C_141 
REMARK   77  A    between atoms: C_141  and  C_155 
REMARK   78  A    between atoms: C_142  and  C_153 
REMARK   79  A    between atoms: C_142  and  C_151 
REMARK   80  A    between atoms: C_142  and  C_152 
REMARK   81  A    between atoms: C_143  and  N_149 
REMARK   82  A    between atoms: C_143  and  C_146 
REMARK   83  A    between atoms: C_146  and  C_152 
REMARK   84  A    between atoms: C_154  and  C_155 
REMARK   85  A    between atoms: C_155  and  C_161 
REMARK   86  A    between atoms: C_158  and  C_163 
REMARK   87  A    between atoms: C_158  and  C_161 
REMARK   88  A    between atoms: N_159  and  C_163 
ROOT
HETATM    1  C   UNL     1      -4.088  14.070  12.843  1.00  0.00     0.187 C 
HETATM    2  C   UNL     1      -3.910  14.266  11.321  1.00  0.00     0.180 C 
HETATM    3  C   UNL     1      -5.502  14.496  13.290  1.00  0.00     0.183 C 
HETATM    4  C   UNL     1      -5.920  15.843  12.652  1.00  0.00     0.204 C 
HETATM    5  C   UNL     1      -5.790  15.785  11.090  1.00  0.00     0.292 C 
HETATM    6  O   UNL     1      -5.156  14.573  10.669  1.00  0.00    -0.348 OA
ENDROOT
BRANCH   1   7
HETATM    7  O   UNL     1      -3.896  12.681  13.143  1.00  0.00    -0.348 OA
BRANCH   7   8
HETATM    8  C   UNL     1      -2.757  12.388  13.966  1.00  0.00     0.292 C 
HETATM    9  O   UNL     1      -1.628  12.967  13.318  1.00  0.00    -0.348 OA
HETATM   10  C   UNL     1      -0.331  12.585  13.801  1.00  0.00     0.180 C 
HETATM   11  C   UNL     1      -0.178  11.088  14.143  1.00  0.00     0.187 C 
HETATM   12  C   UNL     1      -1.355  10.265  13.633  1.00  0.00     0.183 C 
HETATM   13  C   UNL     1      -2.657  10.841  14.199  1.00  0.00     0.204 C 
BRANCH  10  14
HETATM   14  C   UNL     1       0.030  13.489  14.991  1.00  0.00     0.198 C 
BRANCH  14  15
HETATM   15  O   UNL     1       1.351  13.203  15.453  1.00  0.00    -0.398 OA
HETATM   16  H   UNL     1       1.765  14.062  15.665  1.00  0.00     0.209 HD
ENDBRANCH  14  15
ENDBRANCH  10  14
BRANCH  11  17
HETATM   17  O   UNL     1       0.997  10.566  13.504  1.00  0.00    -0.348 OA
BRANCH  17  18
HETATM   18  C   UNL     1       1.908   9.953  14.410  1.00  0.00     0.292 C 
HETATM   19  O   UNL     1       3.246  10.268  14.004  1.00  0.00    -0.351 OA
HETATM   20  C   UNL     1       4.201  10.075  15.066  1.00  0.00     0.150 C 
HETATM   21  C   UNL     1       3.807   8.874  15.947  1.00  0.00     0.068 C 
HETATM   22  C   UNL     1       3.066   7.832  15.094  1.00  0.00     0.154 C 
HETATM   23  C   UNL     1       1.724   8.384  14.507  1.00  0.00     0.205 C 
BRANCH  20  24
HETATM   24  C   UNL     1       4.444  11.389  15.825  1.00  0.00     0.196 C 
BRANCH  24  25
HETATM   25  O   UNL     1       4.201  12.525  14.999  1.00  0.00    -0.398 OA
HETATM   26  H   UNL     1       4.929  13.159  15.099  1.00  0.00     0.209 HD
ENDBRANCH  24  25
ENDBRANCH  20  24
BRANCH  22  27
HETATM   27  O   UNL     1       3.953   7.455  14.028  1.00  0.00    -0.393 OA
HETATM   28  H   UNL     1       4.359   8.274  13.682  1.00  0.00     0.210 HD
ENDBRANCH  22  27
BRANCH  23  29
HETATM   29  O   UNL     1       1.392   7.739  13.196  1.00  0.00    -0.377 OA
BRANCH  29  30
HETATM   30  C   UNL     1       0.973   6.312  13.204  1.00  0.00     0.185 C 
BRANCH  30  31
HETATM   31  C   UNL     1      -0.080   5.902  12.051  1.00  0.00     0.039 C 
HETATM   32  C   UNL     1      -0.005   4.385  11.821  1.00  0.00     0.025 C 
BRANCH  31  33
HETATM   33  C   UNL     1       0.162   6.717  10.667  1.00  0.00     0.036 C 
BRANCH  33  34
HETATM   34  C   UNL     1       1.547   6.724   9.808  1.00  0.00     0.019 C 
HETATM   35  C   UNL     1       1.870   8.237   9.673  1.00  0.00     0.023 C 
BRANCH  34  36
HETATM   36  C   UNL     1       1.267   6.070   8.351  1.00  0.00     0.033 C 
BRANCH  36  37
HETATM   37  C   UNL     1      -0.122   6.061   7.479  1.00  0.00     0.019 C 
HETATM   38  C   UNL     1      -0.984   4.859   7.897  1.00  0.00     0.023 C 
BRANCH  37  39
HETATM   39  C   UNL     1       0.334   5.883   5.952  1.00  0.00     0.033 C 
BRANCH  39  40
HETATM   40  C   UNL     1      -0.228   4.896   4.786  1.00  0.00     0.019 C 
HETATM   41  C   UNL     1      -0.045   3.467   5.364  1.00  0.00     0.023 C 
BRANCH  40  42
HETATM   42  C   UNL     1      -1.711   5.084   4.323  1.00  0.00     0.033 C 
BRANCH  42  43
HETATM   43  C   UNL     1      -2.241   6.116   3.255  1.00  0.00     0.014 C 
HETATM   44  C   UNL     1      -1.580   7.479   3.600  1.00  0.00     0.023 C 
HETATM   45  C   UNL     1      -3.755   6.394   3.330  1.00  0.00     0.023 C 
BRANCH  43  46
HETATM   46  C   UNL     1      -1.896   5.694   1.805  1.00  0.00     0.136 C 
HETATM   47  O   UNL     1      -2.132   4.543   1.426  1.00  0.00    -0.297 OA
BRANCH  46  48
HETATM   48  C   UNL     1      -1.176   6.660   0.868  1.00  0.00     0.109 C 
BRANCH  48  49
HETATM   49  C   UNL     1      -2.184   7.564   0.141  1.00  0.00     0.279 C 
BRANCH  49  50
HETATM   50  N   UNL     1      -3.165   6.801  -0.659  1.00  0.00     0.080 N 
HETATM   51  C   UNL     1      -4.542   7.087  -0.257  1.00  0.00     0.309 C 
HETATM   52  C   UNL     1      -3.005   7.108  -2.085  1.00  0.00     0.309 C 
ENDBRANCH  49  50
ENDBRANCH  48  49
ENDBRANCH  46  48
ENDBRANCH  43  46
ENDBRANCH  42  43
ENDBRANCH  40  42
BRANCH  40  53
HETATM   53  C   UNL     1       0.768   4.998   3.585  1.00  0.00     0.137 C 
HETATM   54  O   UNL     1       0.863   4.106   2.749  1.00  0.00    -0.297 OA
BRANCH  53  55
HETATM   55  C   UNL     1       1.769   6.136   3.577  1.00  0.00     0.109 C 
BRANCH  55  56
HETATM   56  C   UNL     1       3.194   5.673   3.270  1.00  0.00     0.279 C 
BRANCH  56  57
HETATM   57  N   UNL     1       3.475   5.894   1.836  1.00  0.00     0.080 N 
HETATM   58  C   UNL     1       2.809   7.105   1.352  1.00  0.00     0.309 C 
HETATM   59  C   UNL     1       4.909   5.980   1.579  1.00  0.00     0.309 C 
ENDBRANCH  56  57
ENDBRANCH  55  56
ENDBRANCH  53  55
ENDBRANCH  40  53
ENDBRANCH  39  40
ENDBRANCH  37  39
BRANCH  37  60
HETATM   60  C   UNL     1      -1.037   7.312   7.573  1.00  0.00     0.137 C 
HETATM   61  O   UNL     1      -2.212   7.185   7.938  1.00  0.00    -0.297 OA
BRANCH  60  62
HETATM   62  C   UNL     1      -0.531   8.699   7.261  1.00  0.00     0.109 C 
BRANCH  62  63
HETATM   63  C   UNL     1      -1.123   9.796   8.158  1.00  0.00     0.279 C 
BRANCH  63  64
HETATM   64  N   UNL     1      -0.542  11.122   7.858  1.00  0.00     0.080 N 
HETATM   65  C   UNL     1      -0.524  11.980   9.045  1.00  0.00     0.309 C 
HETATM   66  C   UNL     1       0.826  10.967   7.351  1.00  0.00     0.309 C 
ENDBRANCH  63  64
ENDBRANCH  62  63
ENDBRANCH  60  62
ENDBRANCH  37  60
ENDBRANCH  36  37
ENDBRANCH  34  36
BRANCH  34  67
HETATM   67  C   UNL     1       2.797   5.996  10.389  1.00  0.00     0.137 C 
HETATM   68  O   UNL     1       3.574   6.641  11.102  1.00  0.00    -0.297 OA
BRANCH  67  69
HETATM   69  C   UNL     1       3.111   4.525  10.082  1.00  0.00     0.109 C 
BRANCH  69  70
HETATM   70  C   UNL     1       3.771   3.792  11.276  1.00  0.00     0.279 C 
BRANCH  70  71
HETATM   71  N   UNL     1       2.975   3.507  12.487  1.00  0.00     0.080 N 
HETATM   72  C   UNL     1       2.620   2.103  12.622  1.00  0.00     0.309 C 
HETATM   73  C   UNL     1       3.745   3.903  13.676  1.00  0.00     0.309 C 
ENDBRANCH  70  71
ENDBRANCH  69  70
ENDBRANCH  67  69
ENDBRANCH  34  67
ENDBRANCH  33  34
ENDBRANCH  31  33
BRANCH  31  74
HETATM   74  C   UNL     1      -1.433   6.403  12.613  1.00  0.00     0.139 C 
HETATM   75  O   UNL     1      -2.008   7.373  12.099  1.00  0.00    -0.297 OA
BRANCH  74  76
HETATM   76  C   UNL     1      -2.013   5.819  13.883  1.00  0.00     0.109 C 
BRANCH  76  77
HETATM   77  C   UNL     1      -2.428   6.950  14.806  1.00  0.00     0.279 C 
BRANCH  77  78
HETATM   78  N   UNL     1      -1.417   7.334  15.801  1.00  0.00     0.080 N 
HETATM   79  C   UNL     1      -0.867   6.162  16.482  1.00  0.00     0.309 C 
HETATM   80  C   UNL     1      -2.010   8.244  16.788  1.00  0.00     0.309 C 
ENDBRANCH  77  78
ENDBRANCH  76  77
ENDBRANCH  74  76
ENDBRANCH  31  74
ENDBRANCH  30  31
ENDBRANCH  29  30
ENDBRANCH  23  29
ENDBRANCH  17  18
ENDBRANCH  11  17
BRANCH  12  81
HETATM   81  O   UNL     1      -1.370  10.235  12.200  1.00  0.00    -0.390 OA
HETATM   82  H   UNL     1      -1.206   9.299  11.966  1.00  0.00     0.210 HD
ENDBRANCH  12  81
BRANCH  13  83
HETATM   83  O   UNL     1      -3.806  10.042  13.727  1.00  0.00    -0.388 OA
HETATM   84  H   UNL     1      -4.182   9.545  14.470  1.00  0.00     0.210 HD
ENDBRANCH  13  83
ENDBRANCH   7   8
ENDBRANCH   1   7
BRANCH   2  85
HETATM   85  C   UNL     1      -2.815  15.307  11.024  1.00  0.00     0.198 C 
BRANCH  85  86
HETATM   86  O   UNL     1      -2.092  15.657  12.196  1.00  0.00    -0.398 OA
HETATM   87  H   UNL     1      -2.009  16.627  12.226  1.00  0.00     0.209 HD
ENDBRANCH  85  86
ENDBRANCH   2  85
BRANCH   3  88
HETATM   88  O   UNL     1      -6.466  13.480  12.973  1.00  0.00    -0.390 OA
HETATM   89  H   UNL     1      -5.980  12.630  12.930  1.00  0.00     0.210 HD
ENDBRANCH   3  88
BRANCH   4  90
HETATM   90  O   UNL     1      -7.267  16.261  13.109  1.00  0.00    -0.388 OA
HETATM   91  H   UNL     1      -7.926  15.621  12.800  1.00  0.00     0.210 HD
ENDBRANCH   4  90
BRANCH   5  92
HETATM   92  O   UNL     1      -7.087  15.808  10.456  1.00  0.00    -0.348 OA
BRANCH  92  93
HETATM   93  C   UNL     1      -7.424  14.659   9.625  1.00  0.00     0.187 C 
HETATM   94  C   UNL     1      -8.906  14.285   9.801  1.00  0.00     0.180 C 
HETATM   95  O   UNL     1      -9.630  14.272   8.570  1.00  0.00    -0.348 OA
HETATM   96  C   UNL     1      -9.033  13.602   7.462  1.00  0.00     0.292 C 
HETATM   97  C   UNL     1      -7.575  14.097   7.051  1.00  0.00     0.208 C 
HETATM   98  C   UNL     1      -7.142  15.105   8.157  1.00  0.00     0.183 C 
BRANCH  94  99
HETATM   99  C   UNL     1      -9.124  12.944  10.519  1.00  0.00     0.198 C 
BRANCH  99 100
HETATM  100  O   UNL     1      -9.324  13.156  11.916  1.00  0.00    -0.398 OA
HETATM  101  H   UNL     1     -10.126  12.663  12.179  1.00  0.00     0.209 HD
ENDBRANCH  99 100
ENDBRANCH  94  99
BRANCH  96 102
HETATM  102  O   UNL     1      -9.951  13.845   6.398  1.00  0.00    -0.348 OA
BRANCH 102 103
HETATM  103  C   UNL     1     -10.657  12.708   5.924  1.00  0.00     0.187 C 
HETATM  104  C   UNL     1      -9.930  11.417   6.353  1.00  0.00     0.176 C 
HETATM  105  O   UNL     1     -10.846  10.325   6.606  1.00  0.00    -0.378 OA
HETATM  106  C   UNL     1     -11.980  10.318   5.733  1.00  0.00     0.202 C 
HETATM  107  C   UNL     1     -12.884  11.549   5.961  1.00  0.00     0.173 C 
HETATM  108  C   UNL     1     -12.068  12.725   6.541  1.00  0.00     0.180 C 
BRANCH 104 109
HETATM  109  C   UNL     1      -8.875  10.957   5.340  1.00  0.00     0.198 C 
BRANCH 109 110
HETATM  110  O   UNL     1      -8.642  11.985   4.378  1.00  0.00    -0.398 OA
HETATM  111  H   UNL     1      -9.507  12.406   4.213  1.00  0.00     0.209 HD
ENDBRANCH 109 110
ENDBRANCH 104 109
BRANCH 107 112
HETATM  112  O   UNL     1     -14.037  11.230   6.824  1.00  0.00    -0.391 OA
HETATM  113  H   UNL     1     -13.750  10.653   7.549  1.00  0.00     0.210 HD
ENDBRANCH 107 112
BRANCH 108 114
HETATM  114  O   UNL     1     -12.031  12.641   7.979  1.00  0.00    -0.390 OA
HETATM  115  H   UNL     1     -12.179  13.537   8.332  1.00  0.00     0.210 HD
ENDBRANCH 108 114
ENDBRANCH 102 103
ENDBRANCH  96 102
BRANCH  97 116
HETATM  116  O   UNL     1      -7.591  14.646   5.650  1.00  0.00    -0.369 OA
BRANCH 116 117
HETATM  117  C   UNL     1      -6.460  14.723   4.715  1.00  0.00     0.168 C 
BRANCH 117 118
HETATM  118  C   UNL     1      -5.997  16.119   4.070  1.00  0.00     0.046 C 
HETATM  119  C   UNL     1      -7.279  16.759   3.514  1.00  0.00     0.026 C 
BRANCH 118 120
HETATM  120  C   UNL     1      -4.796  16.182   2.953  1.00  0.00     0.036 C 
BRANCH 120 121
HETATM  121  C   UNL     1      -4.431  17.548   2.076  1.00  0.00     0.019 C 
HETATM  122  C   UNL     1      -5.133  17.229   0.727  1.00  0.00     0.023 C 
BRANCH 121 123
HETATM  123  C   UNL     1      -4.934  18.924   2.611  1.00  0.00     0.137 C 
HETATM  124  O   UNL     1      -4.402  19.385   3.628  1.00  0.00    -0.297 OA
BRANCH 123 125
HETATM  125  C   UNL     1      -6.080  19.701   1.933  1.00  0.00     0.109 C 
BRANCH 125 126
HETATM  126  C   UNL     1      -6.688  20.797   2.837  1.00  0.00     0.279 C 
BRANCH 126 127
HETATM  127  N   UNL     1      -7.726  20.438   3.824  1.00  0.00     0.080 N 
HETATM  128  C   UNL     1      -8.962  21.166   3.508  1.00  0.00     0.309 C 
HETATM  129  C   UNL     1      -7.350  20.748   5.193  1.00  0.00     0.309 C 
ENDBRANCH 126 127
ENDBRANCH 125 126
ENDBRANCH 123 125
ENDBRANCH 121 123
BRANCH 121 130
HETATM  130  C   UNL     1      -2.822  17.767   1.828  1.00  0.00     0.033 C 
BRANCH 130 131
HETATM  131  C   UNL     1      -1.710  16.636   1.299  1.00  0.00     0.019 C 
HETATM  132  C   UNL     1      -1.870  15.355   2.136  1.00  0.00     0.023 C 
BRANCH 131 133
HETATM  133  C   UNL     1      -1.754  16.196  -0.193  1.00  0.00     0.137 C 
HETATM  134  O   UNL     1      -2.511  16.777  -0.980  1.00  0.00    -0.297 OA
BRANCH 133 135
HETATM  135  C   UNL     1      -0.888  15.083  -0.728  1.00  0.00     0.109 C 
BRANCH 135 136
HETATM  136  C   UNL     1      -0.857  14.974  -2.262  1.00  0.00     0.279 C 
BRANCH 136 137
HETATM  137  N   UNL     1       0.443  14.467  -2.754  1.00  0.00     0.080 N 
HETATM  138  C   UNL     1       0.232  13.480  -3.818  1.00  0.00     0.309 C 
HETATM  139  C   UNL     1       1.226  13.857  -1.678  1.00  0.00     0.309 C 
ENDBRANCH 136 137
ENDBRANCH 135 136
ENDBRANCH 133 135
ENDBRANCH 131 133
BRANCH 131 140
HETATM  140  C   UNL     1      -0.247  17.250   1.566  1.00  0.00     0.033 C 
BRANCH 140 141
HETATM  141  C   UNL     1       0.349  18.754   1.270  1.00  0.00     0.019 C 
HETATM  142  C   UNL     1       1.758  18.502   0.666  1.00  0.00     0.023 C 
BRANCH 141 143
HETATM  143  C   UNL     1      -0.454  19.710   0.315  1.00  0.00     0.033 C 
BRANCH 143 144
HETATM  144  C   UNL     1      -0.282  19.849  -1.252  1.00  0.00     0.014 C 
HETATM  145  C   UNL     1       0.359  18.520  -1.742  1.00  0.00     0.023 C 
HETATM  146  C   UNL     1       0.716  20.939  -1.696  1.00  0.00     0.023 C 
BRANCH 144 147
HETATM  147  C   UNL     1      -1.626  20.103  -1.984  1.00  0.00     0.136 C 
HETATM  148  O   UNL     1      -1.633  20.321  -3.199  1.00  0.00    -0.297 OA
BRANCH 147 149
HETATM  149  C   UNL     1      -2.934  20.183  -1.201  1.00  0.00     0.109 C 
BRANCH 149 150
HETATM  150  C   UNL     1      -3.447  21.632  -1.134  1.00  0.00     0.279 C 
BRANCH 150 151
HETATM  151  N   UNL     1      -4.749  21.812  -1.813  1.00  0.00     0.080 N 
HETATM  152  C   UNL     1      -5.792  22.265  -0.892  1.00  0.00     0.309 C 
HETATM  153  C   UNL     1      -4.619  22.781  -2.908  1.00  0.00     0.309 C 
ENDBRANCH 150 151
ENDBRANCH 149 150
ENDBRANCH 147 149
ENDBRANCH 144 147
ENDBRANCH 143 144
ENDBRANCH 141 143
BRANCH 141 154
HETATM  154  C   UNL     1       0.595  19.430   2.657  1.00  0.00     0.137 C 
HETATM  155  O   UNL     1      -0.292  19.489   3.515  1.00  0.00    -0.297 OA
BRANCH 154 156
HETATM  156  C   UNL     1       1.883  20.194   2.870  1.00  0.00     0.109 C 
BRANCH 156 157
HETATM  157  C   UNL     1       1.738  21.702   2.653  1.00  0.00     0.279 C 
BRANCH 157 158
HETATM  158  N   UNL     1       3.079  22.325   2.677  1.00  0.00     0.080 N 
HETATM  159  C   UNL     1       3.370  22.926   3.976  1.00  0.00     0.309 C 
HETATM  160  C   UNL     1       3.209  23.333   1.623  1.00  0.00     0.309 C 
ENDBRANCH 157 158
ENDBRANCH 156 157
ENDBRANCH 154 156
ENDBRANCH 141 154
ENDBRANCH 140 141
ENDBRANCH 131 140
ENDBRANCH 130 131
ENDBRANCH 121 130
ENDBRANCH 120 121
ENDBRANCH 118 120
BRANCH 118 161
HETATM  161  C   UNL     1      -5.384  16.784   5.336  1.00  0.00     0.139 C 
HETATM  162  O   UNL     1      -6.028  17.594   6.016  1.00  0.00    -0.297 OA
BRANCH 161 163
HETATM  163  C   UNL     1      -3.937  16.547   5.692  1.00  0.00     0.109 C 
BRANCH 163 164
HETATM  164  C   UNL     1      -3.861  15.763   6.982  1.00  0.00     0.279 C 
BRANCH 164 165
HETATM  165  N   UNL     1      -3.006  14.568   6.946  1.00  0.00     0.080 N 
HETATM  166  C   UNL     1      -2.767  14.133   5.570  1.00  0.00     0.309 C 
HETATM  167  C   UNL     1      -3.658  13.479   7.681  1.00  0.00     0.309 C 
ENDBRANCH 164 165
ENDBRANCH 163 164
ENDBRANCH 161 163
ENDBRANCH 118 161
ENDBRANCH 117 118
ENDBRANCH 116 117
ENDBRANCH  97 116
BRANCH  98 168
HETATM  168  O   UNL     1      -7.803  16.368   7.928  1.00  0.00    -0.390 OA
HETATM  169  H   UNL     1      -8.023  16.394   6.976  1.00  0.00     0.210 HD
ENDBRANCH  98 168
ENDBRANCH  92  93
ENDBRANCH   5  92
TORSDOF 88
ENDMDL
MODEL 5
REMARK VINA RESULT:      -5.6      2.263      5.770
REMARK WARNING: 32 MAX_TORS EXCEEDED!!!
REMARK  88 active torsions:
REMARK  status: ('A' for Active; 'I' for Inactive)
REMARK    1  A    between atoms: C_1  and  O_28 
REMARK    2  A    between atoms: C_2  and  C_6 
REMARK    3  A    between atoms: C_3  and  O_8 
REMARK    4  A    between atoms: C_4  and  O_10 
REMARK    5  A    between atoms: C_5  and  O_11 
REMARK    6  A    between atoms: C_6  and  O_58 
REMARK    7  A    between atoms: O_11  and  C_18 
REMARK    8  A    between atoms: O_13  and  C_16 
REMARK    9  A    between atoms: C_15  and  C_21 
REMARK   10  A    between atoms: O_17  and  C_20 
REMARK   11  A    between atoms: O_17  and  C_39 
REMARK   12  A    between atoms: O_19  and  C_22 
REMARK   13  A    between atoms: O_19  and  C_153 
REMARK   14  A    between atoms: C_21  and  O_60 
REMARK   15  A    between atoms: O_24  and  C_27 
REMARK   16  A    between atoms: C_26  and  C_32 
REMARK   17  A    between atoms: O_28  and  C_31 
REMARK   18  A    between atoms: C_29  and  O_49 
REMARK   19  A    between atoms: O_30  and  C_33 
REMARK   20  A    between atoms: C_32  and  O_56 
REMARK   21  A    between atoms: O_35  and  C_38 
REMARK   22  A    between atoms: C_37  and  C_42 
REMARK   23  A    between atoms: O_40  and  C_43 
REMARK   24  A    between atoms: C_42  and  O_62 
REMARK   25  A    between atoms: O_45  and  C_48 
REMARK   26  A    between atoms: C_47  and  C_53 
REMARK   27  A    between atoms: O_49  and  C_52 
REMARK   28  A    between atoms: O_51  and  C_54 
REMARK   29  A    between atoms: O_51  and  C_64 
REMARK   30  A    between atoms: C_53  and  O_55 
REMARK   31  A    between atoms: C_64  and  C_65 
REMARK   32  A    between atoms: C_65  and  C_66 
REMARK   33  A    between atoms: C_65  and  C_75 
REMARK   34  A    between atoms: C_66  and  C_67 
REMARK   35  A    between atoms: C_67  and  C_68 
REMARK   36  A    between atoms: C_67  and  C_79 
REMARK   37  A    between atoms: C_68  and  C_69 
REMARK   38  A    between atoms: C_69  and  C_70 
REMARK   39  A    between atoms: C_69  and  C_83 
REMARK   40  A    between atoms: C_70  and  C_71 
REMARK   41  A    between atoms: C_71  and  C_72 
REMARK   42  A    between atoms: C_71  and  C_87 
REMARK   43  A    between atoms: C_72  and  C_73 
REMARK   44  A    between atoms: C_73  and  C_91 
REMARK   45  A    between atoms: C_75  and  C_76 
REMARK   46  A    between atoms: C_76  and  C_77 
REMARK   47  A    between atoms: C_77  and  N_95 
REMARK   48  A    between atoms: C_79  and  C_80 
REMARK   49  A    between atoms: C_80  and  C_81 
REMARK   50  A    between atoms: C_81  and  N_96 
REMARK   51  A    between atoms: C_83  and  C_84 
REMARK   52  A    between atoms: C_84  and  C_85 
REMARK   53  A    between atoms: C_85  and  N_97 
REMARK   54  A    between atoms: C_87  and  C_88 
REMARK   55  A    between atoms: C_88  and  C_89 
REMARK   56  A    between atoms: C_89  and  N_98 
REMARK   57  A    between atoms: C_91  and  C_92 
REMARK   58  A    between atoms: C_92  and  C_93 
REMARK   59  A    between atoms: C_93  and  N_99 
REMARK   60  A    between atoms: N_118  and  C_121 
REMARK   61  A    between atoms: C_121  and  C_127 
REMARK   62  A    between atoms: C_122  and  C_127 
REMARK   63  A    between atoms: C_122  and  C_134 
REMARK   64  A    between atoms: N_124  and  C_131 
REMARK   65  A    between atoms: C_128  and  C_129 
REMARK   66  A    between atoms: C_128  and  C_138 
REMARK   67  A    between atoms: C_129  and  C_131 
REMARK   68  A    between atoms: N_133  and  C_144 
REMARK   69  A    between atoms: C_134  and  C_145 
REMARK   70  A    between atoms: C_134  and  C_151 
REMARK   71  A    between atoms: C_136  and  C_144 
REMARK   72  A    between atoms: C_136  and  C_148 
REMARK   73  A    between atoms: C_138  and  C_154 
REMARK   74  A    between atoms: C_138  and  C_145 
REMARK   75  A    between atoms: C_140  and  C_148 
REMARK   76  A    between atoms: C_140  and  C_141 
REMARK   77  A    between atoms: C_141  and  C_155 
REMARK   78  A    between atoms: C_142  and  C_153 
REMARK   79  A    between atoms: C_142  and  C_151 
REMARK   80  A    between atoms: C_142  and  C_152 
REMARK   81  A    between atoms: C_143  and  N_149 
REMARK   82  A    between atoms: C_143  and  C_146 
REMARK   83  A    between atoms: C_146  and  C_152 
REMARK   84  A    between atoms: C_154  and  C_155 
REMARK   85  A    between atoms: C_155  and  C_161 
REMARK   86  A    between atoms: C_158  and  C_163 
REMARK   87  A    between atoms: C_158  and  C_161 
REMARK   88  A    between atoms: N_159  and  C_163 
ROOT
HETATM    1  C   UNL     1      -4.115  14.373  11.727  1.00  0.00     0.187 C 
HETATM    2  C   UNL     1      -4.125  14.253  10.187  1.00  0.00     0.180 C 
HETATM    3  C   UNL     1      -5.515  14.740  12.260  1.00  0.00     0.183 C 
HETATM    4  C   UNL     1      -6.167  15.867  11.423  1.00  0.00     0.204 C 
HETATM    5  C   UNL     1      -6.197  15.487   9.901  1.00  0.00     0.292 C 
HETATM    6  O   UNL     1      -5.462  14.283   9.655  1.00  0.00    -0.348 OA
ENDROOT
BRANCH   1   7
HETATM    7  O   UNL     1      -3.717  13.108  12.275  1.00  0.00    -0.348 OA
BRANCH   7   8
HETATM    8  C   UNL     1      -2.546  13.145  13.104  1.00  0.00     0.292 C 
HETATM    9  O   UNL     1      -1.459  13.504  12.255  1.00  0.00    -0.348 OA
HETATM   10  C   UNL     1      -0.135  13.346  12.789  1.00  0.00     0.180 C 
HETATM   11  C   UNL     1       0.087  12.059  13.611  1.00  0.00     0.187 C 
HETATM   12  C   UNL     1      -1.068  11.077  13.454  1.00  0.00     0.183 C 
HETATM   13  C   UNL     1      -2.377  11.772  13.841  1.00  0.00     0.204 C 
BRANCH  10  14
HETATM   14  C   UNL     1       0.220  14.609  13.589  1.00  0.00     0.198 C 
BRANCH  14  15
HETATM   15  O   UNL     1       1.584  14.569  14.008  1.00  0.00    -0.398 OA
HETATM   16  H   UNL     1       1.674  13.793  14.594  1.00  0.00     0.209 HD
ENDBRANCH  14  15
ENDBRANCH  10  14
BRANCH  11  17
HETATM   17  O   UNL     1       1.266  11.385  13.140  1.00  0.00    -0.348 OA
BRANCH  17  18
HETATM   18  C   UNL     1       2.249  11.196  14.151  1.00  0.00     0.292 C 
HETATM   19  O   UNL     1       3.546  11.418  13.582  1.00  0.00    -0.351 OA
HETATM   20  C   UNL     1       4.548  11.680  14.585  1.00  0.00     0.150 C 
HETATM   21  C   UNL     1       4.274  10.860  15.860  1.00  0.00     0.068 C 
HETATM   22  C   UNL     1       3.584   9.539  15.485  1.00  0.00     0.154 C 
HETATM   23  C   UNL     1       2.185   9.763  14.818  1.00  0.00     0.205 C 
BRANCH  20  24
HETATM   24  C   UNL     1       4.719  13.191  14.804  1.00  0.00     0.196 C 
BRANCH  24  25
HETATM   25  O   UNL     1       4.766  13.519  16.190  1.00  0.00    -0.398 OA
HETATM   26  H   UNL     1       4.584  14.464  16.305  1.00  0.00     0.209 HD
ENDBRANCH  24  25
ENDBRANCH  20  24
BRANCH  22  27
HETATM   27  O   UNL     1       4.460   8.851  14.576  1.00  0.00    -0.393 OA
HETATM   28  H   UNL     1       5.064   8.301  15.113  1.00  0.00     0.210 HD
ENDBRANCH  22  27
BRANCH  23  29
HETATM   29  O   UNL     1       1.858   8.668  13.849  1.00  0.00    -0.377 OA
BRANCH  29  30
HETATM   30  C   UNL     1       0.947   7.582  14.301  1.00  0.00     0.185 C 
BRANCH  30  31
HETATM   31  C   UNL     1       1.283   6.118  13.710  1.00  0.00     0.039 C 
HETATM   32  C   UNL     1       2.597   5.618  14.329  1.00  0.00     0.025 C 
BRANCH  31  33
HETATM   33  C   UNL     1       1.355   6.101  12.088  1.00  0.00     0.036 C 
BRANCH  33  34
HETATM   34  C   UNL     1       2.675   5.724  11.209  1.00  0.00     0.019 C 
HETATM   35  C   UNL     1       3.843   6.261  12.079  1.00  0.00     0.023 C 
BRANCH  34  36
HETATM   36  C   UNL     1       2.611   6.516   9.794  1.00  0.00     0.033 C 
BRANCH  36  37
HETATM   37  C   UNL     1       1.303   7.146   9.029  1.00  0.00     0.019 C 
HETATM   38  C   UNL     1       0.077   6.254   9.287  1.00  0.00     0.023 C 
BRANCH  37  39
HETATM   39  C   UNL     1       1.666   7.111   7.468  1.00  0.00     0.033 C 
BRANCH  39  40
HETATM   40  C   UNL     1       1.078   6.189   6.263  1.00  0.00     0.019 C 
HETATM   41  C   UNL     1       2.234   5.211   5.921  1.00  0.00     0.023 C 
BRANCH  40  42
HETATM   42  C   UNL     1      -0.229   5.372   6.539  1.00  0.00     0.033 C 
BRANCH  42  43
HETATM   43  C   UNL     1      -1.048   4.524   5.492  1.00  0.00     0.014 C 
HETATM   44  C   UNL     1      -1.918   3.534   6.316  1.00  0.00     0.023 C 
HETATM   45  C   UNL     1      -0.186   3.618   4.590  1.00  0.00     0.023 C 
BRANCH  43  46
HETATM   46  C   UNL     1      -1.938   5.407   4.584  1.00  0.00     0.136 C 
HETATM   47  O   UNL     1      -2.613   6.315   5.078  1.00  0.00    -0.297 OA
BRANCH  46  48
HETATM   48  C   UNL     1      -2.066   5.104   3.094  1.00  0.00     0.109 C 
BRANCH  48  49
HETATM   49  C   UNL     1      -3.496   5.384   2.603  1.00  0.00     0.279 C 
BRANCH  49  50
HETATM   50  N   UNL     1      -3.527   6.069   1.294  1.00  0.00     0.080 N 
HETATM   51  C   UNL     1      -4.880   6.140   0.743  1.00  0.00     0.309 C 
HETATM   52  C   UNL     1      -2.986   7.428   1.421  1.00  0.00     0.309 C 
ENDBRANCH  49  50
ENDBRANCH  48  49
ENDBRANCH  46  48
ENDBRANCH  43  46
ENDBRANCH  42  43
ENDBRANCH  40  42
BRANCH  40  53
HETATM   53  C   UNL     1       0.923   7.117   5.013  1.00  0.00     0.137 C 
HETATM   54  O   UNL     1       0.247   8.140   5.050  1.00  0.00    -0.297 OA
BRANCH  53  55
HETATM   55  C   UNL     1       1.460   6.626   3.684  1.00  0.00     0.109 C 
BRANCH  55  56
HETATM   56  C   UNL     1       0.815   7.325   2.487  1.00  0.00     0.279 C 
BRANCH  56  57
HETATM   57  N   UNL     1       1.351   6.738   1.240  1.00  0.00     0.080 N 
HETATM   58  C   UNL     1       2.767   7.072   1.070  1.00  0.00     0.309 C 
HETATM   59  C   UNL     1       1.176   5.290   1.212  1.00  0.00     0.309 C 
ENDBRANCH  56  57
ENDBRANCH  55  56
ENDBRANCH  53  55
ENDBRANCH  40  53
ENDBRANCH  39  40
ENDBRANCH  37  39
BRANCH  37  60
HETATM   60  C   UNL     1       0.880   8.593   9.401  1.00  0.00     0.137 C 
HETATM   61  O   UNL     1       0.865   8.940  10.588  1.00  0.00    -0.297 OA
BRANCH  60  62
HETATM   62  C   UNL     1       0.512   9.613   8.352  1.00  0.00     0.109 C 
BRANCH  62  63
HETATM   63  C   UNL     1      -0.984   9.957   8.314  1.00  0.00     0.279 C 
BRANCH  63  64
HETATM   64  N   UNL     1      -1.233  11.361   8.704  1.00  0.00     0.080 N 
HETATM   65  C   UNL     1      -0.002  12.022   9.142  1.00  0.00     0.309 C 
HETATM   66  C   UNL     1      -1.806  12.102   7.575  1.00  0.00     0.309 C 
ENDBRANCH  63  64
ENDBRANCH  62  63
ENDBRANCH  60  62
ENDBRANCH  37  60
ENDBRANCH  36  37
ENDBRANCH  34  36
BRANCH  34  67
HETATM   67  C   UNL     1       2.951   4.229  10.868  1.00  0.00     0.137 C 
HETATM   68  O   UNL     1       3.732   3.971   9.944  1.00  0.00    -0.297 OA
BRANCH  67  69
HETATM   69  C   UNL     1       2.266   3.073  11.612  1.00  0.00     0.109 C 
BRANCH  69  70
HETATM   70  C   UNL     1       2.971   2.719  12.945  1.00  0.00     0.279 C 
BRANCH  70  71
HETATM   71  N   UNL     1       2.515   1.549  13.723  1.00  0.00     0.080 N 
HETATM   72  C   UNL     1       2.166   1.875  15.096  1.00  0.00     0.309 C 
HETATM   73  C   UNL     1       1.330   0.968  13.073  1.00  0.00     0.309 C 
ENDBRANCH  70  71
ENDBRANCH  69  70
ENDBRANCH  67  69
ENDBRANCH  34  67
ENDBRANCH  33  34
ENDBRANCH  31  33
BRANCH  31  74
HETATM   74  C   UNL     1       0.032   5.287  14.092  1.00  0.00     0.139 C 
HETATM   75  O   UNL     1      -0.370   4.380  13.351  1.00  0.00    -0.297 OA
BRANCH  74  76
HETATM   76  C   UNL     1      -0.807   5.652  15.297  1.00  0.00     0.109 C 
BRANCH  76  77
HETATM   77  C   UNL     1      -2.271   5.667  14.898  1.00  0.00     0.279 C 
BRANCH  77  78
HETATM   78  N   UNL     1      -2.850   7.008  14.733  1.00  0.00     0.080 N 
HETATM   79  C   UNL     1      -2.639   7.516  13.377  1.00  0.00     0.309 C 
HETATM   80  C   UNL     1      -2.251   7.931  15.704  1.00  0.00     0.309 C 
ENDBRANCH  77  78
ENDBRANCH  76  77
ENDBRANCH  74  76
ENDBRANCH  31  74
ENDBRANCH  30  31
ENDBRANCH  29  30
ENDBRANCH  23  29
ENDBRANCH  17  18
ENDBRANCH  11  17
BRANCH  12  81
HETATM   81  O   UNL     1      -1.120  10.563  12.116  1.00  0.00    -0.390 OA
HETATM   82  H   UNL     1      -1.908   9.982  12.100  1.00  0.00     0.210 HD
ENDBRANCH  12  81
BRANCH  13  83
HETATM   83  O   UNL     1      -3.505  10.827  13.711  1.00  0.00    -0.388 OA
HETATM   84  H   UNL     1      -3.588  10.308  14.526  1.00  0.00     0.210 HD
ENDBRANCH  13  83
ENDBRANCH   7   8
ENDBRANCH   1   7
BRANCH   2  85
HETATM   85  C   UNL     1      -3.209  15.311   9.546  1.00  0.00     0.198 C 
BRANCH  85  86
HETATM   86  O   UNL     1      -1.837  14.962   9.670  1.00  0.00    -0.398 OA
HETATM   87  H   UNL     1      -1.733  14.416  10.469  1.00  0.00     0.209 HD
ENDBRANCH  85  86
ENDBRANCH   2  85
BRANCH   3  88
HETATM   88  O   UNL     1      -6.372  13.586  12.283  1.00  0.00    -0.390 OA
HETATM   89  H   UNL     1      -7.283  13.905  12.112  1.00  0.00     0.210 HD
ENDBRANCH   3  88
BRANCH   4  90
HETATM   90  O   UNL     1      -7.499  16.235  11.957  1.00  0.00    -0.388 OA
HETATM   91  H   UNL     1      -8.153  16.209  11.241  1.00  0.00     0.210 HD
ENDBRANCH   4  90
BRANCH   5  92
HETATM   92  O   UNL     1      -7.545  15.240   9.450  1.00  0.00    -0.348 OA
BRANCH  92  93
HETATM   93  C   UNL     1      -7.689  14.451   8.233  1.00  0.00     0.187 C 
HETATM   94  C   UNL     1      -8.846  13.446   8.376  1.00  0.00     0.180 C 
HETATM   95  O   UNL     1      -9.833  13.579   7.354  1.00  0.00    -0.348 OA
HETATM   96  C   UNL     1      -9.377  13.687   6.008  1.00  0.00     0.292 C 
HETATM   97  C   UNL     1      -8.349  14.867   5.712  1.00  0.00     0.208 C 
HETATM   98  C   UNL     1      -7.994  15.479   7.099  1.00  0.00     0.183 C 
BRANCH  94  99
HETATM   99  C   UNL     1      -8.387  11.981   8.436  1.00  0.00     0.198 C 
BRANCH  99 100
HETATM  100  O   UNL     1      -9.515  11.107   8.422  1.00  0.00    -0.398 OA
HETATM  101  H   UNL     1     -10.124  11.418   7.724  1.00  0.00     0.209 HD
ENDBRANCH  99 100
ENDBRANCH  94  99
BRANCH  96 102
HETATM  102  O   UNL     1     -10.580  13.887   5.268  1.00  0.00    -0.348 OA
BRANCH 102 103
HETATM  103  C   UNL     1     -10.918  12.856   4.353  1.00  0.00     0.187 C 
HETATM  104  C   UNL     1      -9.692  11.958   4.092  1.00  0.00     0.176 C 
HETATM  105  O   UNL     1     -10.059  10.578   3.849  1.00  0.00    -0.378 OA
HETATM  106  C   UNL     1     -11.288  10.433   3.131  1.00  0.00     0.202 C 
HETATM  107  C   UNL     1     -12.493  10.941   3.953  1.00  0.00     0.173 C 
HETATM  108  C   UNL     1     -12.045  12.009   4.975  1.00  0.00     0.180 C 
BRANCH 104 109
HETATM  109  C   UNL     1      -8.821  12.452   2.930  1.00  0.00     0.198 C 
BRANCH 109 110
HETATM  110  O   UNL     1      -7.474  12.621   3.369  1.00  0.00    -0.398 OA
HETATM  111  H   UNL     1      -7.525  12.956   4.285  1.00  0.00     0.209 HD
ENDBRANCH 109 110
ENDBRANCH 104 109
BRANCH 107 112
HETATM  112  O   UNL     1     -13.206   9.837   4.623  1.00  0.00    -0.391 OA
HETATM  113  H   UNL     1     -14.134   9.831   4.340  1.00  0.00     0.210 HD
ENDBRANCH 107 112
BRANCH 108 114
HETATM  114  O   UNL     1     -11.632  11.378   6.203  1.00  0.00    -0.390 OA
HETATM  115  H   UNL     1     -11.847  11.985   6.935  1.00  0.00     0.210 HD
ENDBRANCH 108 114
ENDBRANCH 102 103
ENDBRANCH  96 102
BRANCH  97 116
HETATM  116  O   UNL     1      -8.939  15.829   4.716  1.00  0.00    -0.369 OA
BRANCH 116 117
HETATM  117  C   UNL     1      -8.231  16.534   3.638  1.00  0.00     0.168 C 
BRANCH 117 118
HETATM  118  C   UNL     1      -8.475  18.095   3.353  1.00  0.00     0.046 C 
HETATM  119  C   UNL     1      -9.652  18.497   4.256  1.00  0.00     0.026 C 
BRANCH 118 120
HETATM  120  C   UNL     1      -8.707  18.655   1.828  1.00  0.00     0.036 C 
BRANCH 120 121
HETATM  121  C   UNL     1      -8.126  17.887   0.471  1.00  0.00     0.019 C 
HETATM  122  C   UNL     1      -7.943  19.091  -0.494  1.00  0.00     0.023 C 
BRANCH 121 123
HETATM  123  C   UNL     1      -6.781  17.105   0.585  1.00  0.00     0.137 C 
HETATM  124  O   UNL     1      -6.830  15.874   0.704  1.00  0.00    -0.297 OA
BRANCH 123 125
HETATM  125  C   UNL     1      -5.414  17.814   0.584  1.00  0.00     0.109 C 
BRANCH 125 126
HETATM  126  C   UNL     1      -4.326  17.038   1.360  1.00  0.00     0.279 C 
BRANCH 126 127
HETATM  127  N   UNL     1      -2.919  17.106   0.915  1.00  0.00     0.080 N 
HETATM  128  C   UNL     1      -2.877  17.598  -0.469  1.00  0.00     0.309 C 
HETATM  129  C   UNL     1      -2.237  15.824   0.966  1.00  0.00     0.309 C 
ENDBRANCH 126 127
ENDBRANCH 125 126
ENDBRANCH 123 125
ENDBRANCH 121 123
BRANCH 121 130
HETATM  130  C   UNL     1      -9.176  16.806  -0.181  1.00  0.00     0.033 C 
BRANCH 130 131
HETATM  131  C   UNL     1      -9.691  16.718  -1.769  1.00  0.00     0.019 C 
HETATM  132  C   UNL     1     -10.655  17.885  -2.042  1.00  0.00     0.023 C 
BRANCH 131 133
HETATM  133  C   UNL     1      -8.621  16.756  -2.898  1.00  0.00     0.137 C 
HETATM  134  O   UNL     1      -7.492  16.298  -2.686  1.00  0.00    -0.297 OA
BRANCH 133 135
HETATM  135  C   UNL     1      -8.915  17.327  -4.264  1.00  0.00     0.109 C 
BRANCH 135 136
HETATM  136  C   UNL     1      -9.362  16.291  -5.309  1.00  0.00     0.279 C 
BRANCH 136 137
HETATM  137  N   UNL     1     -10.752  16.524  -5.760  1.00  0.00     0.080 N 
HETATM  138  C   UNL     1     -11.547  15.301  -5.609  1.00  0.00     0.309 C 
HETATM  139  C   UNL     1     -10.798  16.961  -7.157  1.00  0.00     0.309 C 
ENDBRANCH 136 137
ENDBRANCH 135 136
ENDBRANCH 133 135
ENDBRANCH 131 133
BRANCH 131 140
HETATM  140  C   UNL     1     -10.495  15.334  -1.930  1.00  0.00     0.033 C 
BRANCH 140 141
HETATM  141  C   UNL     1     -10.231  13.861  -1.247  1.00  0.00     0.019 C 
HETATM  142  C   UNL     1      -9.775  14.181   0.204  1.00  0.00     0.023 C 
BRANCH 141 143
HETATM  143  C   UNL     1     -11.416  12.829  -1.195  1.00  0.00     0.033 C 
BRANCH 143 144
HETATM  144  C   UNL     1     -12.959  13.160  -1.094  1.00  0.00     0.014 C 
HETATM  145  C   UNL     1     -13.684  11.805  -0.857  1.00  0.00     0.023 C 
HETATM  146  C   UNL     1     -13.587  13.704  -2.395  1.00  0.00     0.023 C 
BRANCH 144 147
HETATM  147  C   UNL     1     -13.288  14.156   0.049  1.00  0.00     0.136 C 
HETATM  148  O   UNL     1     -13.558  15.331  -0.216  1.00  0.00    -0.297 OA
BRANCH 147 149
HETATM  149  C   UNL     1     -13.185  13.722   1.510  1.00  0.00     0.109 C 
BRANCH 149 150
HETATM  150  C   UNL     1     -14.579  13.611   2.150  1.00  0.00     0.279 C 
BRANCH 150 151
HETATM  151  N   UNL     1     -14.845  14.683   3.135  1.00  0.00     0.080 N 
HETATM  152  C   UNL     1     -13.619  15.363   3.554  1.00  0.00     0.309 C 
HETATM  153  C   UNL     1     -15.774  15.669   2.571  1.00  0.00     0.309 C 
ENDBRANCH 150 151
ENDBRANCH 149 150
ENDBRANCH 147 149
ENDBRANCH 144 147
ENDBRANCH 143 144
ENDBRANCH 141 143
BRANCH 141 154
HETATM  154  C   UNL     1      -8.984  13.243  -1.957  1.00  0.00     0.137 C 
HETATM  155  O   UNL     1      -7.930  13.034  -1.348  1.00  0.00    -0.297 OA
BRANCH 154 156
HETATM  156  C   UNL     1      -9.014  13.083  -3.461  1.00  0.00     0.109 C 
BRANCH 156 157
HETATM  157  C   UNL     1      -7.627  13.134  -4.106  1.00  0.00     0.279 C 
BRANCH 157 158
HETATM  158  N   UNL     1      -7.725  12.649  -5.499  1.00  0.00     0.080 N 
HETATM  159  C   UNL     1      -7.139  13.599  -6.442  1.00  0.00     0.309 C 
HETATM  160  C   UNL     1      -9.117  12.381  -5.865  1.00  0.00     0.309 C 
ENDBRANCH 157 158
ENDBRANCH 156 157
ENDBRANCH 154 156
ENDBRANCH 141 154
ENDBRANCH 140 141
ENDBRANCH 131 140
ENDBRANCH 130 131
ENDBRANCH 121 130
ENDBRANCH 120 121
ENDBRANCH 118 120
BRANCH 118 161
HETATM  161  C   UNL     1      -7.075  18.641   3.758  1.00  0.00     0.139 C 
HETATM  162  O   UNL     1      -6.662  19.732   3.344  1.00  0.00    -0.297 OA
BRANCH 161 163
HETATM  163  C   UNL     1      -6.134  17.786   4.571  1.00  0.00     0.109 C 
BRANCH 163 164
HETATM  164  C   UNL     1      -4.838  18.534   4.787  1.00  0.00     0.279 C 
BRANCH 164 165
HETATM  165  N   UNL     1      -4.009  18.053   5.901  1.00  0.00     0.080 N 
HETATM  166  C   UNL     1      -4.816  17.328   6.884  1.00  0.00     0.309 C 
HETATM  167  C   UNL     1      -3.370  19.195   6.563  1.00  0.00     0.309 C 
ENDBRANCH 164 165
ENDBRANCH 163 164
ENDBRANCH 161 163
ENDBRANCH 118 161
ENDBRANCH 117 118
ENDBRANCH 116 117
ENDBRANCH  97 116
BRANCH  98 168
HETATM  168  O   UNL     1      -9.081  16.327   7.532  1.00  0.00    -0.390 OA
HETATM  169  H   UNL     1      -9.675  15.761   8.065  1.00  0.00     0.210 HD
ENDBRANCH  98 168
ENDBRANCH  92  93
ENDBRANCH   5  92
TORSDOF 88
ENDMDL
MODEL 6
REMARK VINA RESULT:      -5.6      2.772      6.129
REMARK WARNING: 32 MAX_TORS EXCEEDED!!!
REMARK  88 active torsions:
REMARK  status: ('A' for Active; 'I' for Inactive)
REMARK    1  A    between atoms: C_1  and  O_28 
REMARK    2  A    between atoms: C_2  and  C_6 
REMARK    3  A    between atoms: C_3  and  O_8 
REMARK    4  A    between atoms: C_4  and  O_10 
REMARK    5  A    between atoms: C_5  and  O_11 
REMARK    6  A    between atoms: C_6  and  O_58 
REMARK    7  A    between atoms: O_11  and  C_18 
REMARK    8  A    between atoms: O_13  and  C_16 
REMARK    9  A    between atoms: C_15  and  C_21 
REMARK   10  A    between atoms: O_17  and  C_20 
REMARK   11  A    between atoms: O_17  and  C_39 
REMARK   12  A    between atoms: O_19  and  C_22 
REMARK   13  A    between atoms: O_19  and  C_153 
REMARK   14  A    between atoms: C_21  and  O_60 
REMARK   15  A    between atoms: O_24  and  C_27 
REMARK   16  A    between atoms: C_26  and  C_32 
REMARK   17  A    between atoms: O_28  and  C_31 
REMARK   18  A    between atoms: C_29  and  O_49 
REMARK   19  A    between atoms: O_30  and  C_33 
REMARK   20  A    between atoms: C_32  and  O_56 
REMARK   21  A    between atoms: O_35  and  C_38 
REMARK   22  A    between atoms: C_37  and  C_42 
REMARK   23  A    between atoms: O_40  and  C_43 
REMARK   24  A    between atoms: C_42  and  O_62 
REMARK   25  A    between atoms: O_45  and  C_48 
REMARK   26  A    between atoms: C_47  and  C_53 
REMARK   27  A    between atoms: O_49  and  C_52 
REMARK   28  A    between atoms: O_51  and  C_54 
REMARK   29  A    between atoms: O_51  and  C_64 
REMARK   30  A    between atoms: C_53  and  O_55 
REMARK   31  A    between atoms: C_64  and  C_65 
REMARK   32  A    between atoms: C_65  and  C_66 
REMARK   33  A    between atoms: C_65  and  C_75 
REMARK   34  A    between atoms: C_66  and  C_67 
REMARK   35  A    between atoms: C_67  and  C_68 
REMARK   36  A    between atoms: C_67  and  C_79 
REMARK   37  A    between atoms: C_68  and  C_69 
REMARK   38  A    between atoms: C_69  and  C_70 
REMARK   39  A    between atoms: C_69  and  C_83 
REMARK   40  A    between atoms: C_70  and  C_71 
REMARK   41  A    between atoms: C_71  and  C_72 
REMARK   42  A    between atoms: C_71  and  C_87 
REMARK   43  A    between atoms: C_72  and  C_73 
REMARK   44  A    between atoms: C_73  and  C_91 
REMARK   45  A    between atoms: C_75  and  C_76 
REMARK   46  A    between atoms: C_76  and  C_77 
REMARK   47  A    between atoms: C_77  and  N_95 
REMARK   48  A    between atoms: C_79  and  C_80 
REMARK   49  A    between atoms: C_80  and  C_81 
REMARK   50  A    between atoms: C_81  and  N_96 
REMARK   51  A    between atoms: C_83  and  C_84 
REMARK   52  A    between atoms: C_84  and  C_85 
REMARK   53  A    between atoms: C_85  and  N_97 
REMARK   54  A    between atoms: C_87  and  C_88 
REMARK   55  A    between atoms: C_88  and  C_89 
REMARK   56  A    between atoms: C_89  and  N_98 
REMARK   57  A    between atoms: C_91  and  C_92 
REMARK   58  A    between atoms: C_92  and  C_93 
REMARK   59  A    between atoms: C_93  and  N_99 
REMARK   60  A    between atoms: N_118  and  C_121 
REMARK   61  A    between atoms: C_121  and  C_127 
REMARK   62  A    between atoms: C_122  and  C_127 
REMARK   63  A    between atoms: C_122  and  C_134 
REMARK   64  A    between atoms: N_124  and  C_131 
REMARK   65  A    between atoms: C_128  and  C_129 
REMARK   66  A    between atoms: C_128  and  C_138 
REMARK   67  A    between atoms: C_129  and  C_131 
REMARK   68  A    between atoms: N_133  and  C_144 
REMARK   69  A    between atoms: C_134  and  C_145 
REMARK   70  A    between atoms: C_134  and  C_151 
REMARK   71  A    between atoms: C_136  and  C_144 
REMARK   72  A    between atoms: C_136  and  C_148 
REMARK   73  A    between atoms: C_138  and  C_154 
REMARK   74  A    between atoms: C_138  and  C_145 
REMARK   75  A    between atoms: C_140  and  C_148 
REMARK   76  A    between atoms: C_140  and  C_141 
REMARK   77  A    between atoms: C_141  and  C_155 
REMARK   78  A    between atoms: C_142  and  C_153 
REMARK   79  A    between atoms: C_142  and  C_151 
REMARK   80  A    between atoms: C_142  and  C_152 
REMARK   81  A    between atoms: C_143  and  N_149 
REMARK   82  A    between atoms: C_143  and  C_146 
REMARK   83  A    between atoms: C_146  and  C_152 
REMARK   84  A    between atoms: C_154  and  C_155 
REMARK   85  A    between atoms: C_155  and  C_161 
REMARK   86  A    between atoms: C_158  and  C_163 
REMARK   87  A    between atoms: C_158  and  C_161 
REMARK   88  A    between atoms: N_159  and  C_163 
ROOT
HETATM    1  C   UNL     1      -3.884  14.417  11.831  1.00  0.00     0.187 C 
HETATM    2  C   UNL     1      -3.905  14.253  10.295  1.00  0.00     0.180 C 
HETATM    3  C   UNL     1      -5.252  14.907  12.350  1.00  0.00     0.183 C 
HETATM    4  C   UNL     1      -5.815  16.056  11.479  1.00  0.00     0.204 C 
HETATM    5  C   UNL     1      -5.875  15.635   9.969  1.00  0.00     0.292 C 
HETATM    6  O   UNL     1      -5.236  14.371   9.759  1.00  0.00    -0.348 OA
ENDROOT
BRANCH   1   7
HETATM    7  O   UNL     1      -3.585  13.142  12.416  1.00  0.00    -0.348 OA
BRANCH   7   8
HETATM    8  C   UNL     1      -2.441  13.123  13.282  1.00  0.00     0.292 C 
HETATM    9  O   UNL     1      -1.332  13.553  12.497  1.00  0.00    -0.348 OA
HETATM   10  C   UNL     1      -0.023  13.364  13.059  1.00  0.00     0.180 C 
HETATM   11  C   UNL     1       0.185  12.018  13.786  1.00  0.00     0.187 C 
HETATM   12  C   UNL     1      -0.956  11.044  13.518  1.00  0.00     0.183 C 
HETATM   13  C   UNL     1      -2.282  11.698  13.916  1.00  0.00     0.204 C 
BRANCH  10  14
HETATM   14  C   UNL     1       0.295  14.564  13.965  1.00  0.00     0.198 C 
BRANCH  14  15
HETATM   15  O   UNL     1       1.704  14.682  14.162  1.00  0.00    -0.398 OA
HETATM   16  H   UNL     1       2.083  14.969  13.309  1.00  0.00     0.209 HD
ENDBRANCH  14  15
ENDBRANCH  10  14
BRANCH  11  17
HETATM   17  O   UNL     1       1.384  11.392  13.302  1.00  0.00    -0.348 OA
BRANCH  17  18
HETATM   18  C   UNL     1       2.295  11.041  14.338  1.00  0.00     0.292 C 
HETATM   19  O   UNL     1       3.628  11.331  13.899  1.00  0.00    -0.351 OA
HETATM   20  C   UNL     1       4.558  11.426  14.996  1.00  0.00     0.150 C 
HETATM   21  C   UNL     1       4.196  10.427  16.111  1.00  0.00     0.068 C 
HETATM   22  C   UNL     1       3.532   9.186  15.494  1.00  0.00     0.154 C 
HETATM   23  C   UNL     1       2.183   9.524  14.774  1.00  0.00     0.205 C 
BRANCH  20  24
HETATM   24  C   UNL     1       4.715  12.885  15.451  1.00  0.00     0.196 C 
BRANCH  24  25
HETATM   25  O   UNL     1       4.530  13.796  14.371  1.00  0.00    -0.398 OA
HETATM   26  H   UNL     1       4.662  14.703  14.686  1.00  0.00     0.209 HD
ENDBRANCH  24  25
ENDBRANCH  20  24
BRANCH  22  27
HETATM   27  O   UNL     1       4.468   8.632  14.554  1.00  0.00    -0.393 OA
HETATM   28  H   UNL     1       4.504   7.668  14.712  1.00  0.00     0.210 HD
ENDBRANCH  22  27
BRANCH  23  29
HETATM   29  O   UNL     1       1.922   8.591  13.631  1.00  0.00    -0.377 OA
BRANCH  29  30
HETATM   30  C   UNL     1       0.754   7.675  13.727  1.00  0.00     0.185 C 
BRANCH  30  31
HETATM   31  C   UNL     1       1.045   6.149  13.285  1.00  0.00     0.039 C 
HETATM   32  C   UNL     1       2.244   5.617  14.086  1.00  0.00     0.025 C 
BRANCH  31  33
HETATM   33  C   UNL     1       1.294   5.998  11.688  1.00  0.00     0.036 C 
BRANCH  33  34
HETATM   34  C   UNL     1       2.733   5.700  10.983  1.00  0.00     0.019 C 
HETATM   35  C   UNL     1       3.739   6.427  11.917  1.00  0.00     0.023 C 
BRANCH  34  36
HETATM   36  C   UNL     1       2.745   6.369   9.506  1.00  0.00     0.033 C 
BRANCH  36  37
HETATM   37  C   UNL     1       1.476   6.873   8.596  1.00  0.00     0.019 C 
HETATM   38  C   UNL     1       0.311   5.881   8.746  1.00  0.00     0.023 C 
BRANCH  37  39
HETATM   39  C   UNL     1       2.002   6.850   7.082  1.00  0.00     0.033 C 
BRANCH  39  40
HETATM   40  C   UNL     1       1.411   6.098   5.766  1.00  0.00     0.019 C 
HETATM   41  C   UNL     1       1.121   4.649   6.242  1.00  0.00     0.023 C 
BRANCH  40  42
HETATM   42  C   UNL     1       0.125   6.693   5.099  1.00  0.00     0.033 C 
BRANCH  42  43
HETATM   43  C   UNL     1      -1.167   5.897   4.671  1.00  0.00     0.014 C 
HETATM   44  C   UNL     1      -2.199   6.090   5.816  1.00  0.00     0.023 C 
HETATM   45  C   UNL     1      -0.976   4.370   4.580  1.00  0.00     0.023 C 
BRANCH  43  46
HETATM   46  C   UNL     1      -1.747   6.394   3.324  1.00  0.00     0.136 C 
HETATM   47  O   UNL     1      -0.996   6.587   2.363  1.00  0.00    -0.297 OA
BRANCH  46  48
HETATM   48  C   UNL     1      -3.227   6.744   3.200  1.00  0.00     0.109 C 
BRANCH  48  49
HETATM   49  C   UNL     1      -3.956   5.718   2.318  1.00  0.00     0.279 C 
BRANCH  49  50
HETATM   50  N   UNL     1      -4.086   6.160   0.914  1.00  0.00     0.080 N 
HETATM   51  C   UNL     1      -5.307   5.650   0.289  1.00  0.00     0.309 C 
HETATM   52  C   UNL     1      -4.084   7.626   0.843  1.00  0.00     0.309 C 
ENDBRANCH  49  50
ENDBRANCH  48  49
ENDBRANCH  46  48
ENDBRANCH  43  46
ENDBRANCH  42  43
ENDBRANCH  40  42
BRANCH  40  53
HETATM   53  C   UNL     1       2.588   5.981   4.742  1.00  0.00     0.137 C 
HETATM   54  O   UNL     1       3.718   6.372   5.011  1.00  0.00    -0.297 OA
BRANCH  53  55
HETATM   55  C   UNL     1       2.265   5.556   3.323  1.00  0.00     0.109 C 
BRANCH  55  56
HETATM   56  C   UNL     1       2.956   6.424   2.270  1.00  0.00     0.279 C 
BRANCH  56  57
HETATM   57  N   UNL     1       3.759   5.557   1.382  1.00  0.00     0.080 N 
HETATM   58  C   UNL     1       4.749   6.341   0.640  1.00  0.00     0.309 C 
HETATM   59  C   UNL     1       4.427   4.496   2.130  1.00  0.00     0.309 C 
ENDBRANCH  56  57
ENDBRANCH  55  56
ENDBRANCH  53  55
ENDBRANCH  40  53
ENDBRANCH  39  40
ENDBRANCH  37  39
BRANCH  37  60
HETATM   60  C   UNL     1       0.894   8.282   8.891  1.00  0.00     0.137 C 
HETATM   61  O   UNL     1       1.147   8.835   9.968  1.00  0.00    -0.297 OA
BRANCH  60  62
HETATM   62  C   UNL     1       0.044   9.022   7.888  1.00  0.00     0.109 C 
BRANCH  62  63
HETATM   63  C   UNL     1      -0.944  10.014   8.519  1.00  0.00     0.279 C 
BRANCH  63  64
HETATM   64  N   UNL     1      -0.610  11.413   8.175  1.00  0.00     0.080 N 
HETATM   65  C   UNL     1       0.617  11.491   7.377  1.00  0.00     0.309 C 
HETATM   66  C   UNL     1      -1.714  12.023   7.427  1.00  0.00     0.309 C 
ENDBRANCH  63  64
ENDBRANCH  62  63
ENDBRANCH  60  62
ENDBRANCH  37  60
ENDBRANCH  36  37
ENDBRANCH  34  36
BRANCH  34  67
HETATM   67  C   UNL     1       3.193   4.222  10.805  1.00  0.00     0.137 C 
HETATM   68  O   UNL     1       3.522   3.841   9.676  1.00  0.00    -0.297 OA
BRANCH  67  69
HETATM   69  C   UNL     1       3.219   3.221  11.969  1.00  0.00     0.109 C 
BRANCH  69  70
HETATM   70  C   UNL     1       1.865   2.495  12.164  1.00  0.00     0.279 C 
BRANCH  70  71
HETATM   71  N   UNL     1       1.709   1.526  13.268  1.00  0.00     0.080 N 
HETATM   72  C   UNL     1       1.934   0.149  12.859  1.00  0.00     0.309 C 
HETATM   73  C   UNL     1       2.667   1.851  14.336  1.00  0.00     0.309 C 
ENDBRANCH  70  71
ENDBRANCH  69  70
ENDBRANCH  67  69
ENDBRANCH  34  67
ENDBRANCH  33  34
ENDBRANCH  31  33
BRANCH  31  74
HETATM   74  C   UNL     1      -0.297   5.434  13.581  1.00  0.00     0.139 C 
HETATM   75  O   UNL     1      -1.120   5.244  12.676  1.00  0.00    -0.297 OA
BRANCH  74  76
HETATM   76  C   UNL     1      -0.696   5.080  14.997  1.00  0.00     0.109 C 
BRANCH  76  77
HETATM   77  C   UNL     1      -1.587   3.852  14.970  1.00  0.00     0.279 C 
BRANCH  77  78
HETATM   78  N   UNL     1      -3.004   4.113  15.258  1.00  0.00     0.080 N 
HETATM   79  C   UNL     1      -3.174   4.751  16.564  1.00  0.00     0.309 C 
HETATM   80  C   UNL     1      -3.760   2.856  15.222  1.00  0.00     0.309 C 
ENDBRANCH  77  78
ENDBRANCH  76  77
ENDBRANCH  74  76
ENDBRANCH  31  74
ENDBRANCH  30  31
ENDBRANCH  29  30
ENDBRANCH  23  29
ENDBRANCH  17  18
ENDBRANCH  11  17
BRANCH  12  81
HETATM   81  O   UNL     1      -0.961  10.635  12.143  1.00  0.00    -0.390 OA
HETATM   82  H   UNL     1      -0.945  11.470  11.632  1.00  0.00     0.210 HD
ENDBRANCH  12  81
BRANCH  13  83
HETATM   83  O   UNL     1      -3.397  10.758  13.678  1.00  0.00    -0.388 OA
HETATM   84  H   UNL     1      -3.535  10.214  14.468  1.00  0.00     0.210 HD
ENDBRANCH  13  83
ENDBRANCH   7   8
ENDBRANCH   1   7
BRANCH   2  85
HETATM   85  C   UNL     1      -2.910  15.219   9.625  1.00  0.00     0.198 C 
BRANCH  85  86
HETATM   86  O   UNL     1      -1.590  14.693   9.621  1.00  0.00    -0.398 OA
HETATM   87  H   UNL     1      -1.372  14.410  10.527  1.00  0.00     0.209 HD
ENDBRANCH  85  86
ENDBRANCH   2  85
BRANCH   3  88
HETATM   88  O   UNL     1      -6.195  13.824  12.405  1.00  0.00    -0.390 OA
HETATM   89  H   UNL     1      -6.173  13.383  11.530  1.00  0.00     0.210 HD
ENDBRANCH   3  88
BRANCH   4  90
HETATM   90  O   UNL     1      -7.115  16.541  12.000  1.00  0.00    -0.388 OA
HETATM   91  H   UNL     1      -7.795  16.442  11.316  1.00  0.00     0.210 HD
ENDBRANCH   4  90
BRANCH   5  92
HETATM   92  O   UNL     1      -7.239  15.481   9.523  1.00  0.00    -0.348 OA
BRANCH  92  93
HETATM   93  C   UNL     1      -7.568  16.058   8.225  1.00  0.00     0.187 C 
HETATM   94  C   UNL     1      -6.347  16.787   7.636  1.00  0.00     0.180 C 
HETATM   95  O   UNL     1      -5.979  16.308   6.343  1.00  0.00    -0.348 OA
HETATM   96  C   UNL     1      -7.020  16.137   5.383  1.00  0.00     0.292 C 
HETATM   97  C   UNL     1      -8.224  15.189   5.821  1.00  0.00     0.208 C 
HETATM   98  C   UNL     1      -7.975  14.853   7.321  1.00  0.00     0.183 C 
BRANCH  94  99
HETATM   99  C   UNL     1      -6.511  18.313   7.572  1.00  0.00     0.198 C 
BRANCH  99 100
HETATM  100  O   UNL     1      -5.554  18.951   8.416  1.00  0.00    -0.398 OA
HETATM  101  H   UNL     1      -6.022  19.252   9.221  1.00  0.00     0.209 HD
ENDBRANCH  99 100
ENDBRANCH  94  99
BRANCH  96 102
HETATM  102  O   UNL     1      -6.342  15.579   4.259  1.00  0.00    -0.348 OA
BRANCH 102 103
HETATM  103  C   UNL     1      -6.324  16.385   3.091  1.00  0.00     0.187 C 
HETATM  104  C   UNL     1      -4.869  16.628   2.638  1.00  0.00     0.176 C 
HETATM  105  O   UNL     1      -4.749  16.735   1.199  1.00  0.00    -0.378 OA
HETATM  106  C   UNL     1      -5.867  17.378   0.579  1.00  0.00     0.202 C 
HETATM  107  C   UNL     1      -7.160  16.546   0.728  1.00  0.00     0.173 C 
HETATM  108  C   UNL     1      -7.085  15.641   1.978  1.00  0.00     0.180 C 
BRANCH 104 109
HETATM  109  C   UNL     1      -4.237  17.868   3.282  1.00  0.00     0.198 C 
BRANCH 109 110
HETATM  110  O   UNL     1      -4.091  17.665   4.688  1.00  0.00    -0.398 OA
HETATM  111  H   UNL     1      -3.138  17.516   4.845  1.00  0.00     0.209 HD
ENDBRANCH 109 110
ENDBRANCH 104 109
BRANCH 107 112
HETATM  112  O   UNL     1      -7.444  15.752  -0.482  1.00  0.00    -0.391 OA
HETATM  113  H   UNL     1      -6.609  15.474  -0.890  1.00  0.00     0.210 HD
ENDBRANCH 107 112
BRANCH 108 114
HETATM  114  O   UNL     1      -6.463  14.385   1.643  1.00  0.00    -0.390 OA
HETATM  115  H   UNL     1      -6.985  13.978   0.928  1.00  0.00     0.210 HD
ENDBRANCH 108 114
ENDBRANCH 102 103
ENDBRANCH  96 102
BRANCH  97 116
HETATM  116  O   UNL     1      -8.309  14.002   4.900  1.00  0.00    -0.369 OA
BRANCH 116 117
HETATM  117  C   UNL     1      -9.180  12.828   5.047  1.00  0.00     0.168 C 
BRANCH 117 118
HETATM  118  C   UNL     1     -10.004  12.232   3.805  1.00  0.00     0.046 C 
HETATM  119  C   UNL     1      -9.075  12.379   2.589  1.00  0.00     0.026 C 
BRANCH 118 120
HETATM  120  C   UNL     1     -11.510  12.779   3.443  1.00  0.00     0.036 C 
BRANCH 120 121
HETATM  121  C   UNL     1     -12.504  13.527   4.547  1.00  0.00     0.019 C 
HETATM  122  C   UNL     1     -11.860  14.939   4.615  1.00  0.00     0.023 C 
BRANCH 121 123
HETATM  123  C   UNL     1     -14.019  13.663   4.203  1.00  0.00     0.137 C 
HETATM  124  O   UNL     1     -14.432  14.762   3.811  1.00  0.00    -0.297 OA
BRANCH 123 125
HETATM  125  C   UNL     1     -15.007  12.492   4.362  1.00  0.00     0.109 C 
BRANCH 125 126
HETATM  126  C   UNL     1     -16.431  12.948   4.755  1.00  0.00     0.279 C 
BRANCH 126 127
HETATM  127  N   UNL     1     -17.458  13.124   3.709  1.00  0.00     0.080 N 
HETATM  128  C   UNL     1     -18.768  12.738   4.251  1.00  0.00     0.309 C 
HETATM  129  C   UNL     1     -17.206  12.334   2.516  1.00  0.00     0.309 C 
ENDBRANCH 126 127
ENDBRANCH 125 126
ENDBRANCH 123 125
ENDBRANCH 121 123
BRANCH 121 130
HETATM  130  C   UNL     1     -12.482  12.833   6.036  1.00  0.00     0.033 C 
BRANCH 130 131
HETATM  131  C   UNL     1     -12.840  13.555   7.501  1.00  0.00     0.019 C 
HETATM  132  C   UNL     1     -11.638  14.412   7.937  1.00  0.00     0.023 C 
BRANCH 131 133
HETATM  133  C   UNL     1     -14.092  14.475   7.587  1.00  0.00     0.137 C 
HETATM  134  O   UNL     1     -14.026  15.638   7.170  1.00  0.00    -0.297 OA
BRANCH 133 135
HETATM  135  C   UNL     1     -15.404  13.994   8.154  1.00  0.00     0.109 C 
BRANCH 135 136
HETATM  136  C   UNL     1     -16.062  14.957   9.158  1.00  0.00     0.279 C 
BRANCH 136 137
HETATM  137  N   UNL     1     -17.033  15.860   8.502  1.00  0.00     0.080 N 
HETATM  138  C   UNL     1     -16.959  17.200   9.095  1.00  0.00     0.309 C 
HETATM  139  C   UNL     1     -18.402  15.355   8.620  1.00  0.00     0.309 C 
ENDBRANCH 136 137
ENDBRANCH 135 136
ENDBRANCH 133 135
ENDBRANCH 131 133
BRANCH 131 140
HETATM  140  C   UNL     1     -13.049  12.374   8.572  1.00  0.00     0.033 C 
BRANCH 140 141
HETATM  141  C   UNL     1     -11.961  11.599   9.532  1.00  0.00     0.019 C 
HETATM  142  C   UNL     1     -11.158  10.693   8.558  1.00  0.00     0.023 C 
BRANCH 141 143
HETATM  143  C   UNL     1     -10.954  12.459  10.379  1.00  0.00     0.033 C 
BRANCH 143 144
HETATM  144  C   UNL     1     -11.305  13.404  11.598  1.00  0.00     0.014 C 
HETATM  145  C   UNL     1     -11.383  12.490  12.854  1.00  0.00     0.023 C 
HETATM  146  C   UNL     1     -12.699  14.061  11.521  1.00  0.00     0.023 C 
BRANCH 144 147
HETATM  147  C   UNL     1     -10.257  14.527  11.812  1.00  0.00     0.136 C 
HETATM  148  O   UNL     1      -9.069  14.237  11.979  1.00  0.00    -0.297 OA
BRANCH 147 149
HETATM  149  C   UNL     1     -10.694  15.987  11.914  1.00  0.00     0.109 C 
BRANCH 149 150
HETATM  150  C   UNL     1     -10.392  16.744  10.609  1.00  0.00     0.279 C 
BRANCH 150 151
HETATM  151  N   UNL     1     -11.293  17.898  10.395  1.00  0.00     0.080 N 
HETATM  152  C   UNL     1     -12.533  17.779  11.163  1.00  0.00     0.309 C 
HETATM  153  C   UNL     1     -10.614  19.145  10.766  1.00  0.00     0.309 C 
ENDBRANCH 150 151
ENDBRANCH 149 150
ENDBRANCH 147 149
ENDBRANCH 144 147
ENDBRANCH 143 144
ENDBRANCH 141 143
BRANCH 141 154
HETATM  154  C   UNL     1     -12.770  10.626  10.448  1.00  0.00     0.137 C 
HETATM  155  O   UNL     1     -12.321   9.523  10.777  1.00  0.00    -0.297 OA
BRANCH 154 156
HETATM  156  C   UNL     1     -14.208  10.966  10.774  1.00  0.00     0.109 C 
BRANCH 156 157
HETATM  157  C   UNL     1     -14.639  10.511  12.170  1.00  0.00     0.279 C 
BRANCH 157 158
HETATM  158  N   UNL     1     -16.058  10.097  12.126  1.00  0.00     0.080 N 
HETATM  159  C   UNL     1     -16.683  10.451  10.855  1.00  0.00     0.309 C 
HETATM  160  C   UNL     1     -16.812  10.690  13.232  1.00  0.00     0.309 C 
ENDBRANCH 157 158
ENDBRANCH 156 157
ENDBRANCH 154 156
ENDBRANCH 141 154
ENDBRANCH 140 141
ENDBRANCH 131 140
ENDBRANCH 130 131
ENDBRANCH 121 130
ENDBRANCH 120 121
ENDBRANCH 118 120
BRANCH 118 161
HETATM  161  C   UNL     1     -10.233  10.786   4.330  1.00  0.00     0.139 C 
HETATM  162  O   UNL     1      -9.739  10.400   5.398  1.00  0.00    -0.297 OA
BRANCH 161 163
HETATM  163  C   UNL     1     -10.967   9.778   3.480  1.00  0.00     0.109 C 
BRANCH 163 164
HETATM  164  C   UNL     1     -12.377   9.616   4.001  1.00  0.00     0.279 C 
BRANCH 164 165
HETATM  165  N   UNL     1     -13.382   9.242   2.996  1.00  0.00     0.080 N 
HETATM  166  C   UNL     1     -13.230   7.843   2.593  1.00  0.00     0.309 C 
HETATM  167  C   UNL     1     -13.229  10.095   1.812  1.00  0.00     0.309 C 
ENDBRANCH 164 165
ENDBRANCH 163 164
ENDBRANCH 161 163
ENDBRANCH 118 161
ENDBRANCH 117 118
ENDBRANCH 116 117
ENDBRANCH  97 116
BRANCH  98 168
HETATM  168  O   UNL     1      -6.945  13.844   7.413  1.00  0.00    -0.390 OA
HETATM  169  H   UNL     1      -7.091  13.235   6.662  1.00  0.00     0.210 HD
ENDBRANCH  98 168
ENDBRANCH  92  93
ENDBRANCH   5  92
TORSDOF 88
ENDMDL
MODEL 7
REMARK VINA RESULT:      -5.6      2.248      5.377
REMARK WARNING: 32 MAX_TORS EXCEEDED!!!
REMARK  88 active torsions:
REMARK  status: ('A' for Active; 'I' for Inactive)
REMARK    1  A    between atoms: C_1  and  O_28 
REMARK    2  A    between atoms: C_2  and  C_6 
REMARK    3  A    between atoms: C_3  and  O_8 
REMARK    4  A    between atoms: C_4  and  O_10 
REMARK    5  A    between atoms: C_5  and  O_11 
REMARK    6  A    between atoms: C_6  and  O_58 
REMARK    7  A    between atoms: O_11  and  C_18 
REMARK    8  A    between atoms: O_13  and  C_16 
REMARK    9  A    between atoms: C_15  and  C_21 
REMARK   10  A    between atoms: O_17  and  C_20 
REMARK   11  A    between atoms: O_17  and  C_39 
REMARK   12  A    between atoms: O_19  and  C_22 
REMARK   13  A    between atoms: O_19  and  C_153 
REMARK   14  A    between atoms: C_21  and  O_60 
REMARK   15  A    between atoms: O_24  and  C_27 
REMARK   16  A    between atoms: C_26  and  C_32 
REMARK   17  A    between atoms: O_28  and  C_31 
REMARK   18  A    between atoms: C_29  and  O_49 
REMARK   19  A    between atoms: O_30  and  C_33 
REMARK   20  A    between atoms: C_32  and  O_56 
REMARK   21  A    between atoms: O_35  and  C_38 
REMARK   22  A    between atoms: C_37  and  C_42 
REMARK   23  A    between atoms: O_40  and  C_43 
REMARK   24  A    between atoms: C_42  and  O_62 
REMARK   25  A    between atoms: O_45  and  C_48 
REMARK   26  A    between atoms: C_47  and  C_53 
REMARK   27  A    between atoms: O_49  and  C_52 
REMARK   28  A    between atoms: O_51  and  C_54 
REMARK   29  A    between atoms: O_51  and  C_64 
REMARK   30  A    between atoms: C_53  and  O_55 
REMARK   31  A    between atoms: C_64  and  C_65 
REMARK   32  A    between atoms: C_65  and  C_66 
REMARK   33  A    between atoms: C_65  and  C_75 
REMARK   34  A    between atoms: C_66  and  C_67 
REMARK   35  A    between atoms: C_67  and  C_68 
REMARK   36  A    between atoms: C_67  and  C_79 
REMARK   37  A    between atoms: C_68  and  C_69 
REMARK   38  A    between atoms: C_69  and  C_70 
REMARK   39  A    between atoms: C_69  and  C_83 
REMARK   40  A    between atoms: C_70  and  C_71 
REMARK   41  A    between atoms: C_71  and  C_72 
REMARK   42  A    between atoms: C_71  and  C_87 
REMARK   43  A    between atoms: C_72  and  C_73 
REMARK   44  A    between atoms: C_73  and  C_91 
REMARK   45  A    between atoms: C_75  and  C_76 
REMARK   46  A    between atoms: C_76  and  C_77 
REMARK   47  A    between atoms: C_77  and  N_95 
REMARK   48  A    between atoms: C_79  and  C_80 
REMARK   49  A    between atoms: C_80  and  C_81 
REMARK   50  A    between atoms: C_81  and  N_96 
REMARK   51  A    between atoms: C_83  and  C_84 
REMARK   52  A    between atoms: C_84  and  C_85 
REMARK   53  A    between atoms: C_85  and  N_97 
REMARK   54  A    between atoms: C_87  and  C_88 
REMARK   55  A    between atoms: C_88  and  C_89 
REMARK   56  A    between atoms: C_89  and  N_98 
REMARK   57  A    between atoms: C_91  and  C_92 
REMARK   58  A    between atoms: C_92  and  C_93 
REMARK   59  A    between atoms: C_93  and  N_99 
REMARK   60  A    between atoms: N_118  and  C_121 
REMARK   61  A    between atoms: C_121  and  C_127 
REMARK   62  A    between atoms: C_122  and  C_127 
REMARK   63  A    between atoms: C_122  and  C_134 
REMARK   64  A    between atoms: N_124  and  C_131 
REMARK   65  A    between atoms: C_128  and  C_129 
REMARK   66  A    between atoms: C_128  and  C_138 
REMARK   67  A    between atoms: C_129  and  C_131 
REMARK   68  A    between atoms: N_133  and  C_144 
REMARK   69  A    between atoms: C_134  and  C_145 
REMARK   70  A    between atoms: C_134  and  C_151 
REMARK   71  A    between atoms: C_136  and  C_144 
REMARK   72  A    between atoms: C_136  and  C_148 
REMARK   73  A    between atoms: C_138  and  C_154 
REMARK   74  A    between atoms: C_138  and  C_145 
REMARK   75  A    between atoms: C_140  and  C_148 
REMARK   76  A    between atoms: C_140  and  C_141 
REMARK   77  A    between atoms: C_141  and  C_155 
REMARK   78  A    between atoms: C_142  and  C_153 
REMARK   79  A    between atoms: C_142  and  C_151 
REMARK   80  A    between atoms: C_142  and  C_152 
REMARK   81  A    between atoms: C_143  and  N_149 
REMARK   82  A    between atoms: C_143  and  C_146 
REMARK   83  A    between atoms: C_146  and  C_152 
REMARK   84  A    between atoms: C_154  and  C_155 
REMARK   85  A    between atoms: C_155  and  C_161 
REMARK   86  A    between atoms: C_158  and  C_163 
REMARK   87  A    between atoms: C_158  and  C_161 
REMARK   88  A    between atoms: N_159  and  C_163 
ROOT
HETATM    1  C   UNL     1      -3.818  14.348  11.725  1.00  0.00     0.187 C 
HETATM    2  C   UNL     1      -3.578  14.094  10.220  1.00  0.00     0.180 C 
HETATM    3  C   UNL     1      -5.229  14.923  11.966  1.00  0.00     0.183 C 
HETATM    4  C   UNL     1      -5.571  16.041  10.951  1.00  0.00     0.204 C 
HETATM    5  C   UNL     1      -5.387  15.534   9.478  1.00  0.00     0.292 C 
HETATM    6  O   UNL     1      -4.786  14.234   9.451  1.00  0.00    -0.348 OA
ENDROOT
BRANCH   1   7
HETATM    7  O   UNL     1      -3.692  13.099  12.418  1.00  0.00    -0.348 OA
BRANCH   7   8
HETATM    8  C   UNL     1      -2.517  12.971  13.233  1.00  0.00     0.292 C 
HETATM    9  O   UNL     1      -1.407  13.267  12.391  1.00  0.00    -0.348 OA
HETATM   10  C   UNL     1      -0.101  12.947  12.897  1.00  0.00     0.180 C 
HETATM   11  C   UNL     1      -0.003  11.599  13.642  1.00  0.00     0.187 C 
HETATM   12  C   UNL     1      -1.252  10.749  13.445  1.00  0.00     0.183 C 
HETATM   13  C   UNL     1      -2.482  11.548  13.889  1.00  0.00     0.204 C 
BRANCH  10  14
HETATM   14  C   UNL     1       0.385  14.121  13.763  1.00  0.00     0.198 C 
BRANCH  14  15
HETATM   15  O   UNL     1      -0.263  15.332  13.374  1.00  0.00    -0.398 OA
HETATM   16  H   UNL     1       0.121  15.591  12.514  1.00  0.00     0.209 HD
ENDBRANCH  14  15
ENDBRANCH  10  14
BRANCH  11  17
HETATM   17  O   UNL     1       1.099  10.840  13.118  1.00  0.00    -0.348 OA
BRANCH  17  18
HETATM   18  C   UNL     1       1.964  10.332  14.128  1.00  0.00     0.292 C 
HETATM   19  O   UNL     1       3.308  10.727  13.825  1.00  0.00    -0.351 OA
HETATM   20  C   UNL     1       4.175  10.648  14.974  1.00  0.00     0.150 C 
HETATM   21  C   UNL     1       3.788   9.458  15.872  1.00  0.00     0.068 C 
HETATM   22  C   UNL     1       3.200   8.331  15.009  1.00  0.00     0.154 C 
HETATM   23  C   UNL     1       1.881   8.760  14.282  1.00  0.00     0.205 C 
BRANCH  20  24
HETATM   24  C   UNL     1       4.258  12.006  15.688  1.00  0.00     0.196 C 
BRANCH  24  25
HETATM   25  O   UNL     1       4.988  11.914  16.909  1.00  0.00    -0.398 OA
HETATM   26  H   UNL     1       4.399  11.606  17.615  1.00  0.00     0.209 HD
ENDBRANCH  24  25
ENDBRANCH  20  24
BRANCH  22  27
HETATM   27  O   UNL     1       4.203   7.976  14.042  1.00  0.00    -0.393 OA
HETATM   28  H   UNL     1       4.367   7.016  14.131  1.00  0.00     0.210 HD
ENDBRANCH  22  27
BRANCH  23  29
HETATM   29  O   UNL     1       1.713   8.039  12.980  1.00  0.00    -0.377 OA
BRANCH  29  30
HETATM   30  C   UNL     1       1.116   6.677  13.004  1.00  0.00     0.185 C 
BRANCH  30  31
HETATM   31  C   UNL     1       0.111   6.349  11.784  1.00  0.00     0.039 C 
HETATM   32  C   UNL     1       0.062   4.828  11.571  1.00  0.00     0.025 C 
BRANCH  31  33
HETATM   33  C   UNL     1       0.520   7.119  10.415  1.00  0.00     0.036 C 
BRANCH  33  34
HETATM   34  C   UNL     1       1.541   6.546   9.281  1.00  0.00     0.019 C 
HETATM   35  C   UNL     1       2.138   7.837   8.659  1.00  0.00     0.023 C 
BRANCH  34  36
HETATM   36  C   UNL     1       0.689   5.723   8.172  1.00  0.00     0.033 C 
BRANCH  36  37
HETATM   37  C   UNL     1      -0.514   6.260   7.196  1.00  0.00     0.019 C 
HETATM   38  C   UNL     1      -1.578   5.161   7.038  1.00  0.00     0.023 C 
BRANCH  37  39
HETATM   39  C   UNL     1       0.180   6.536   5.777  1.00  0.00     0.033 C 
BRANCH  39  40
HETATM   40  C   UNL     1       0.599   5.511   4.585  1.00  0.00     0.019 C 
HETATM   41  C   UNL     1       0.331   4.099   5.173  1.00  0.00     0.023 C 
BRANCH  40  42
HETATM   42  C   UNL     1      -0.136   5.649   3.210  1.00  0.00     0.033 C 
BRANCH  42  43
HETATM   43  C   UNL     1      -0.359   6.977   2.390  1.00  0.00     0.014 C 
HETATM   44  C   UNL     1      -0.050   6.633   0.907  1.00  0.00     0.023 C 
HETATM   45  C   UNL     1       0.626   8.112   2.734  1.00  0.00     0.023 C 
BRANCH  43  46
HETATM   46  C   UNL     1      -1.800   7.525   2.534  1.00  0.00     0.136 C 
HETATM   47  O   UNL     1      -2.336   7.566   3.646  1.00  0.00    -0.297 OA
BRANCH  46  48
HETATM   48  C   UNL     1      -2.603   7.925   1.300  1.00  0.00     0.109 C 
BRANCH  48  49
HETATM   49  C   UNL     1      -3.967   7.216   1.286  1.00  0.00     0.279 C 
BRANCH  49  50
HETATM   50  N   UNL     1      -4.151   6.353   0.101  1.00  0.00     0.080 N 
HETATM   51  C   UNL     1      -5.564   6.176  -0.236  1.00  0.00     0.309 C 
HETATM   52  C   UNL     1      -3.448   6.923  -1.055  1.00  0.00     0.309 C 
ENDBRANCH  49  50
ENDBRANCH  48  49
ENDBRANCH  46  48
ENDBRANCH  43  46
ENDBRANCH  42  43
ENDBRANCH  40  42
BRANCH  40  53
HETATM   53  C   UNL     1       2.151   5.614   4.420  1.00  0.00     0.137 C 
HETATM   54  O   UNL     1       2.848   6.202   5.240  1.00  0.00    -0.297 OA
BRANCH  53  55
HETATM   55  C   UNL     1       2.767   5.146   3.117  1.00  0.00     0.109 C 
BRANCH  55  56
HETATM   56  C   UNL     1       4.296   5.155   3.144  1.00  0.00     0.279 C 
BRANCH  56  57
HETATM   57  N   UNL     1       4.792   6.057   2.083  1.00  0.00     0.080 N 
HETATM   58  C   UNL     1       5.649   5.334   1.140  1.00  0.00     0.309 C 
HETATM   59  C   UNL     1       3.693   6.695   1.366  1.00  0.00     0.309 C 
ENDBRANCH  56  57
ENDBRANCH  55  56
ENDBRANCH  53  55
ENDBRANCH  40  53
ENDBRANCH  39  40
ENDBRANCH  37  39
BRANCH  37  60
HETATM   60  C   UNL     1      -1.271   7.545   7.628  1.00  0.00     0.137 C 
HETATM   61  O   UNL     1      -2.342   7.449   8.239  1.00  0.00    -0.297 OA
BRANCH  60  62
HETATM   62  C   UNL     1      -0.725   8.925   7.354  1.00  0.00     0.109 C 
BRANCH  62  63
HETATM   63  C   UNL     1      -1.049   9.953   8.448  1.00  0.00     0.279 C 
BRANCH  63  64
HETATM   64  N   UNL     1      -0.653  11.320   8.050  1.00  0.00     0.080 N 
HETATM   65  C   UNL     1      -1.783  12.063   7.487  1.00  0.00     0.309 C 
HETATM   66  C   UNL     1      -0.124  12.048   9.208  1.00  0.00     0.309 C 
ENDBRANCH  63  64
ENDBRANCH  62  63
ENDBRANCH  60  62
ENDBRANCH  37  60
ENDBRANCH  36  37
ENDBRANCH  34  36
BRANCH  34  67
HETATM   67  C   UNL     1       2.711   5.616   9.722  1.00  0.00     0.137 C 
HETATM   68  O   UNL     1       2.878   4.552   9.114  1.00  0.00    -0.297 OA
BRANCH  67  69
HETATM   69  C   UNL     1       3.637   5.957  10.899  1.00  0.00     0.109 C 
BRANCH  69  70
HETATM   70  C   UNL     1       4.087   4.704  11.688  1.00  0.00     0.279 C 
BRANCH  70  71
HETATM   71  N   UNL     1       3.137   4.035  12.602  1.00  0.00     0.080 N 
HETATM   72  C   UNL     1       2.927   2.633  12.283  1.00  0.00     0.309 C 
HETATM   73  C   UNL     1       3.648   4.123  13.978  1.00  0.00     0.309 C 
ENDBRANCH  70  71
ENDBRANCH  69  70
ENDBRANCH  67  69
ENDBRANCH  34  67
ENDBRANCH  33  34
ENDBRANCH  31  33
BRANCH  31  74
HETATM   74  C   UNL     1      -1.226   6.978  12.248  1.00  0.00     0.139 C 
HETATM   75  O   UNL     1      -1.964   7.555  11.438  1.00  0.00    -0.297 OA
BRANCH  74  76
HETATM   76  C   UNL     1      -1.594   7.032  13.714  1.00  0.00     0.109 C 
BRANCH  76  77
HETATM   77  C   UNL     1      -2.308   5.748  14.095  1.00  0.00     0.279 C 
BRANCH  77  78
HETATM   78  N   UNL     1      -2.301   5.444  15.533  1.00  0.00     0.080 N 
HETATM   79  C   UNL     1      -3.004   6.474  16.299  1.00  0.00     0.309 C 
HETATM   80  C   UNL     1      -0.919   5.331  16.012  1.00  0.00     0.309 C 
ENDBRANCH  77  78
ENDBRANCH  76  77
ENDBRANCH  74  76
ENDBRANCH  31  74
ENDBRANCH  30  31
ENDBRANCH  29  30
ENDBRANCH  23  29
ENDBRANCH  17  18
ENDBRANCH  11  17
BRANCH  12  81
HETATM   81  O   UNL     1      -1.365  10.320  12.081  1.00  0.00    -0.390 OA
HETATM   82  H   UNL     1      -0.779   9.539  12.014  1.00  0.00     0.210 HD
ENDBRANCH  12  81
BRANCH  13  83
HETATM   83  O   UNL     1      -3.700  10.729  13.720  1.00  0.00    -0.388 OA
HETATM   84  H   UNL     1      -4.418  11.103  14.254  1.00  0.00     0.210 HD
ENDBRANCH  13  83
ENDBRANCH   7   8
ENDBRANCH   1   7
BRANCH   2  85
HETATM   85  C   UNL     1      -2.432  14.976   9.689  1.00  0.00     0.198 C 
BRANCH  85  86
HETATM   86  O   UNL     1      -1.887  15.799  10.710  1.00  0.00    -0.398 OA
HETATM   87  H   UNL     1      -2.049  16.729  10.471  1.00  0.00     0.209 HD
ENDBRANCH  85  86
ENDBRANCH   2  85
BRANCH   3  88
HETATM   88  O   UNL     1      -6.222  13.886  11.908  1.00  0.00    -0.390 OA
HETATM   89  H   UNL     1      -6.682  13.981  11.048  1.00  0.00     0.210 HD
ENDBRANCH   3  88
BRANCH   4  90
HETATM   90  O   UNL     1      -6.916  16.609  11.207  1.00  0.00    -0.388 OA
HETATM   91  H   UNL     1      -7.020  17.431  10.703  1.00  0.00     0.210 HD
ENDBRANCH   4  90
BRANCH   5  92
HETATM   92  O   UNL     1      -6.657  15.409   8.805  1.00  0.00    -0.348 OA
BRANCH  92  93
HETATM   93  C   UNL     1      -6.921  14.136   8.145  1.00  0.00     0.187 C 
HETATM   94  C   UNL     1      -8.323  13.620   8.513  1.00  0.00     0.180 C 
HETATM   95  O   UNL     1      -9.146  13.375   7.373  1.00  0.00    -0.348 OA
HETATM   96  C   UNL     1      -8.571  12.648   6.289  1.00  0.00     0.292 C 
HETATM   97  C   UNL     1      -7.231  13.253   5.678  1.00  0.00     0.208 C 
HETATM   98  C   UNL     1      -6.829  14.430   6.615  1.00  0.00     0.183 C 
BRANCH  94  99
HETATM   99  C   UNL     1      -8.306  12.360   9.393  1.00  0.00     0.198 C 
BRANCH  99 100
HETATM  100  O   UNL     1      -8.389  12.717  10.772  1.00  0.00    -0.398 OA
HETATM  101  H   UNL     1      -7.485  12.927  11.079  1.00  0.00     0.209 HD
ENDBRANCH  99 100
ENDBRANCH  94  99
BRANCH  96 102
HETATM  102  O   UNL     1      -9.605  12.653   5.306  1.00  0.00    -0.348 OA
BRANCH 102 103
HETATM  103  C   UNL     1     -10.929  12.546   5.805  1.00  0.00     0.187 C 
HETATM  104  C   UNL     1     -11.786  13.719   5.286  1.00  0.00     0.176 C 
HETATM  105  O   UNL     1     -13.170  13.343   5.080  1.00  0.00    -0.378 OA
HETATM  106  C   UNL     1     -13.654  12.400   6.042  1.00  0.00     0.202 C 
HETATM  107  C   UNL     1     -12.934  11.038   5.920  1.00  0.00     0.173 C 
HETATM  108  C   UNL     1     -11.528  11.218   5.306  1.00  0.00     0.180 C 
BRANCH 104 109
HETATM  109  C   UNL     1     -11.737  14.950   6.197  1.00  0.00     0.198 C 
BRANCH 109 110
HETATM  110  O   UNL     1     -10.457  15.575   6.102  1.00  0.00    -0.398 OA
HETATM  111  H   UNL     1     -10.361  16.125   6.904  1.00  0.00     0.209 HD
ENDBRANCH 109 110
ENDBRANCH 104 109
BRANCH 107 112
HETATM  112  O   UNL     1     -13.727  10.066   5.145  1.00  0.00    -0.391 OA
HETATM  113  H   UNL     1     -13.435   9.166   5.359  1.00  0.00     0.210 HD
ENDBRANCH 107 112
BRANCH 108 114
HETATM  114  O   UNL     1     -11.605  11.166   3.868  1.00  0.00    -0.390 OA
HETATM  115  H   UNL     1     -12.395  11.669   3.596  1.00  0.00     0.210 HD
ENDBRANCH 108 114
ENDBRANCH 102 103
ENDBRANCH  96 102
BRANCH  97 116
HETATM  116  O   UNL     1      -7.441  13.622   4.234  1.00  0.00    -0.369 OA
BRANCH 116 117
HETATM  117  C   UNL     1      -8.456  14.534   3.691  1.00  0.00     0.168 C 
BRANCH 117 118
HETATM  118  C   UNL     1      -8.147  15.485   2.435  1.00  0.00     0.046 C 
HETATM  119  C   UNL     1      -9.322  16.474   2.370  1.00  0.00     0.026 C 
BRANCH 118 120
HETATM  120  C   UNL     1      -7.845  14.857   0.948  1.00  0.00     0.036 C 
BRANCH 120 121
HETATM  121  C   UNL     1      -8.891  13.836   0.155  1.00  0.00     0.019 C 
HETATM  122  C   UNL     1      -7.978  12.600  -0.078  1.00  0.00     0.023 C 
BRANCH 121 123
HETATM  123  C   UNL     1     -10.190  13.389   0.896  1.00  0.00     0.137 C 
HETATM  124  O   UNL     1     -10.083  12.577   1.822  1.00  0.00    -0.297 OA
BRANCH 123 125
HETATM  125  C   UNL     1     -11.585  13.903   0.492  1.00  0.00     0.109 C 
BRANCH 125 126
HETATM  126  C   UNL     1     -12.583  13.942   1.672  1.00  0.00     0.279 C 
BRANCH 126 127
HETATM  127  N   UNL     1     -13.579  15.030   1.752  1.00  0.00     0.080 N 
HETATM  128  C   UNL     1     -13.060  16.093   2.623  1.00  0.00     0.309 C 
HETATM  129  C   UNL     1     -14.863  14.596   2.275  1.00  0.00     0.309 C 
ENDBRANCH 126 127
ENDBRANCH 125 126
ENDBRANCH 123 125
ENDBRANCH 121 123
BRANCH 121 130
HETATM  130  C   UNL     1      -9.421  14.417  -1.287  1.00  0.00     0.033 C 
BRANCH 130 131
HETATM  131  C   UNL     1      -9.470  16.012  -1.786  1.00  0.00     0.019 C 
HETATM  132  C   UNL     1     -10.508  16.764  -0.935  1.00  0.00     0.023 C 
BRANCH 131 133
HETATM  133  C   UNL     1      -8.159  16.848  -1.723  1.00  0.00     0.137 C 
HETATM  134  O   UNL     1      -7.171  16.487  -2.374  1.00  0.00    -0.297 OA
BRANCH 133 135
HETATM  135  C   UNL     1      -8.049  18.108  -0.900  1.00  0.00     0.109 C 
BRANCH 135 136
HETATM  136  C   UNL     1      -8.165  19.413  -1.705  1.00  0.00     0.279 C 
BRANCH 136 137
HETATM  137  N   UNL     1      -7.076  20.361  -1.382  1.00  0.00     0.080 N 
HETATM  138  C   UNL     1      -6.720  21.147  -2.569  1.00  0.00     0.309 C 
HETATM  139  C   UNL     1      -5.886  19.665  -0.889  1.00  0.00     0.309 C 
ENDBRANCH 136 137
ENDBRANCH 135 136
ENDBRANCH 133 135
ENDBRANCH 131 133
BRANCH 131 140
HETATM  140  C   UNL     1      -9.957  16.014  -3.318  1.00  0.00     0.033 C 
BRANCH 140 141
HETATM  141  C   UNL     1     -10.894  14.941  -4.141  1.00  0.00     0.019 C 
HETATM  142  C   UNL     1     -11.374  15.724  -5.394  1.00  0.00     0.023 C 
BRANCH 141 143
HETATM  143  C   UNL     1     -10.258  13.579  -4.601  1.00  0.00     0.033 C 
BRANCH 143 144
HETATM  144  C   UNL     1      -8.810  13.364  -5.202  1.00  0.00     0.014 C 
HETATM  145  C   UNL     1      -8.815  11.958  -5.866  1.00  0.00     0.023 C 
HETATM  146  C   UNL     1      -7.683  13.282  -4.150  1.00  0.00     0.023 C 
BRANCH 144 147
HETATM  147  C   UNL     1      -8.420  14.450  -6.238  1.00  0.00     0.136 C 
HETATM  148  O   UNL     1      -7.826  15.467  -5.871  1.00  0.00    -0.297 OA
BRANCH 147 149
HETATM  149  C   UNL     1      -8.850  14.319  -7.698  1.00  0.00     0.109 C 
BRANCH 149 150
HETATM  150  C   UNL     1      -7.629  14.141  -8.617  1.00  0.00     0.279 C 
BRANCH 150 151
HETATM  151  N   UNL     1      -7.960  13.450  -9.883  1.00  0.00     0.080 N 
HETATM  152  C   UNL     1      -9.271  13.845 -10.399  1.00  0.00     0.309 C 
HETATM  153  C   UNL     1      -6.937  13.735 -10.896  1.00  0.00     0.309 C 
ENDBRANCH 150 151
ENDBRANCH 149 150
ENDBRANCH 147 149
ENDBRANCH 144 147
ENDBRANCH 143 144
ENDBRANCH 141 143
BRANCH 141 154
HETATM  154  C   UNL     1     -12.174  14.695  -3.279  1.00  0.00     0.137 C 
HETATM  155  O   UNL     1     -12.377  13.614  -2.717  1.00  0.00    -0.297 OA
BRANCH 154 156
HETATM  156  C   UNL     1     -13.270  15.737  -3.298  1.00  0.00     0.109 C 
BRANCH 156 157
HETATM  157  C   UNL     1     -14.616  15.212  -2.790  1.00  0.00     0.279 C 
BRANCH 157 158
HETATM  158  N   UNL     1     -15.529  15.034  -3.940  1.00  0.00     0.080 N 
HETATM  159  C   UNL     1     -15.600  13.637  -4.359  1.00  0.00     0.309 C 
HETATM  160  C   UNL     1     -15.119  15.871  -5.069  1.00  0.00     0.309 C 
ENDBRANCH 157 158
ENDBRANCH 156 157
ENDBRANCH 154 156
ENDBRANCH 141 154
ENDBRANCH 140 141
ENDBRANCH 131 140
ENDBRANCH 130 131
ENDBRANCH 121 130
ENDBRANCH 120 121
ENDBRANCH 118 120
BRANCH 118 161
HETATM  161  C   UNL     1      -6.779  16.065   2.896  1.00  0.00     0.139 C 
HETATM  162  O   UNL     1      -6.702  16.881   3.824  1.00  0.00    -0.297 OA
BRANCH 161 163
HETATM  163  C   UNL     1      -5.520  15.736   2.132  1.00  0.00     0.109 C 
BRANCH 163 164
HETATM  164  C   UNL     1      -4.413  16.670   2.564  1.00  0.00     0.279 C 
BRANCH 164 165
HETATM  165  N   UNL     1      -4.157  17.805   1.666  1.00  0.00     0.080 N 
HETATM  166  C   UNL     1      -3.117  17.481   0.690  1.00  0.00     0.309 C 
HETATM  167  C   UNL     1      -3.723  18.963   2.455  1.00  0.00     0.309 C 
ENDBRANCH 164 165
ENDBRANCH 163 164
ENDBRANCH 161 163
ENDBRANCH 118 161
ENDBRANCH 117 118
ENDBRANCH 116 117
ENDBRANCH  97 116
BRANCH  98 168
HETATM  168  O   UNL     1      -7.662  15.572   6.319  1.00  0.00    -0.390 OA
HETATM  169  H   UNL     1      -8.149  15.352   5.500  1.00  0.00     0.210 HD
ENDBRANCH  98 168
ENDBRANCH  92  93
ENDBRANCH   5  92
TORSDOF 88
ENDMDL
MODEL 8
REMARK VINA RESULT:      -5.5      3.381      6.487
REMARK WARNING: 32 MAX_TORS EXCEEDED!!!
REMARK  88 active torsions:
REMARK  status: ('A' for Active; 'I' for Inactive)
REMARK    1  A    between atoms: C_1  and  O_28 
REMARK    2  A    between atoms: C_2  and  C_6 
REMARK    3  A    between atoms: C_3  and  O_8 
REMARK    4  A    between atoms: C_4  and  O_10 
REMARK    5  A    between atoms: C_5  and  O_11 
REMARK    6  A    between atoms: C_6  and  O_58 
REMARK    7  A    between atoms: O_11  and  C_18 
REMARK    8  A    between atoms: O_13  and  C_16 
REMARK    9  A    between atoms: C_15  and  C_21 
REMARK   10  A    between atoms: O_17  and  C_20 
REMARK   11  A    between atoms: O_17  and  C_39 
REMARK   12  A    between atoms: O_19  and  C_22 
REMARK   13  A    between atoms: O_19  and  C_153 
REMARK   14  A    between atoms: C_21  and  O_60 
REMARK   15  A    between atoms: O_24  and  C_27 
REMARK   16  A    between atoms: C_26  and  C_32 
REMARK   17  A    between atoms: O_28  and  C_31 
REMARK   18  A    between atoms: C_29  and  O_49 
REMARK   19  A    between atoms: O_30  and  C_33 
REMARK   20  A    between atoms: C_32  and  O_56 
REMARK   21  A    between atoms: O_35  and  C_38 
REMARK   22  A    between atoms: C_37  and  C_42 
REMARK   23  A    between atoms: O_40  and  C_43 
REMARK   24  A    between atoms: C_42  and  O_62 
REMARK   25  A    between atoms: O_45  and  C_48 
REMARK   26  A    between atoms: C_47  and  C_53 
REMARK   27  A    between atoms: O_49  and  C_52 
REMARK   28  A    between atoms: O_51  and  C_54 
REMARK   29  A    between atoms: O_51  and  C_64 
REMARK   30  A    between atoms: C_53  and  O_55 
REMARK   31  A    between atoms: C_64  and  C_65 
REMARK   32  A    between atoms: C_65  and  C_66 
REMARK   33  A    between atoms: C_65  and  C_75 
REMARK   34  A    between atoms: C_66  and  C_67 
REMARK   35  A    between atoms: C_67  and  C_68 
REMARK   36  A    between atoms: C_67  and  C_79 
REMARK   37  A    between atoms: C_68  and  C_69 
REMARK   38  A    between atoms: C_69  and  C_70 
REMARK   39  A    between atoms: C_69  and  C_83 
REMARK   40  A    between atoms: C_70  and  C_71 
REMARK   41  A    between atoms: C_71  and  C_72 
REMARK   42  A    between atoms: C_71  and  C_87 
REMARK   43  A    between atoms: C_72  and  C_73 
REMARK   44  A    between atoms: C_73  and  C_91 
REMARK   45  A    between atoms: C_75  and  C_76 
REMARK   46  A    between atoms: C_76  and  C_77 
REMARK   47  A    between atoms: C_77  and  N_95 
REMARK   48  A    between atoms: C_79  and  C_80 
REMARK   49  A    between atoms: C_80  and  C_81 
REMARK   50  A    between atoms: C_81  and  N_96 
REMARK   51  A    between atoms: C_83  and  C_84 
REMARK   52  A    between atoms: C_84  and  C_85 
REMARK   53  A    between atoms: C_85  and  N_97 
REMARK   54  A    between atoms: C_87  and  C_88 
REMARK   55  A    between atoms: C_88  and  C_89 
REMARK   56  A    between atoms: C_89  and  N_98 
REMARK   57  A    between atoms: C_91  and  C_92 
REMARK   58  A    between atoms: C_92  and  C_93 
REMARK   59  A    between atoms: C_93  and  N_99 
REMARK   60  A    between atoms: N_118  and  C_121 
REMARK   61  A    between atoms: C_121  and  C_127 
REMARK   62  A    between atoms: C_122  and  C_127 
REMARK   63  A    between atoms: C_122  and  C_134 
REMARK   64  A    between atoms: N_124  and  C_131 
REMARK   65  A    between atoms: C_128  and  C_129 
REMARK   66  A    between atoms: C_128  and  C_138 
REMARK   67  A    between atoms: C_129  and  C_131 
REMARK   68  A    between atoms: N_133  and  C_144 
REMARK   69  A    between atoms: C_134  and  C_145 
REMARK   70  A    between atoms: C_134  and  C_151 
REMARK   71  A    between atoms: C_136  and  C_144 
REMARK   72  A    between atoms: C_136  and  C_148 
REMARK   73  A    between atoms: C_138  and  C_154 
REMARK   74  A    between atoms: C_138  and  C_145 
REMARK   75  A    between atoms: C_140  and  C_148 
REMARK   76  A    between atoms: C_140  and  C_141 
REMARK   77  A    between atoms: C_141  and  C_155 
REMARK   78  A    between atoms: C_142  and  C_153 
REMARK   79  A    between atoms: C_142  and  C_151 
REMARK   80  A    between atoms: C_142  and  C_152 
REMARK   81  A    between atoms: C_143  and  N_149 
REMARK   82  A    between atoms: C_143  and  C_146 
REMARK   83  A    between atoms: C_146  and  C_152 
REMARK   84  A    between atoms: C_154  and  C_155 
REMARK   85  A    between atoms: C_155  and  C_161 
REMARK   86  A    between atoms: C_158  and  C_163 
REMARK   87  A    between atoms: C_158  and  C_161 
REMARK   88  A    between atoms: N_159  and  C_163 
ROOT
HETATM    1  C   UNL     1      -3.991  14.682  11.102  1.00  0.00     0.187 C 
HETATM    2  C   UNL     1      -4.396  14.260   9.673  1.00  0.00     0.180 C 
HETATM    3  C   UNL     1      -5.102  15.524  11.763  1.00  0.00     0.183 C 
HETATM    4  C   UNL     1      -5.659  16.594  10.793  1.00  0.00     0.204 C 
HETATM    5  C   UNL     1      -6.137  15.938   9.452  1.00  0.00     0.292 C 
HETATM    6  O   UNL     1      -5.778  14.553   9.397  1.00  0.00    -0.348 OA
ENDROOT
BRANCH   1   7
HETATM    7  O   UNL     1      -3.774  13.494  11.877  1.00  0.00    -0.348 OA
BRANCH   7   8
HETATM    8  C   UNL     1      -2.477  13.391  12.483  1.00  0.00     0.292 C 
HETATM    9  O   UNL     1      -1.648  12.701  11.552  1.00  0.00    -0.348 OA
HETATM   10  C   UNL     1      -0.376  12.235  12.031  1.00  0.00     0.180 C 
HETATM   11  C   UNL     1      -0.397  11.626  13.448  1.00  0.00     0.187 C 
HETATM   12  C   UNL     1      -1.819  11.387  13.944  1.00  0.00     0.183 C 
HETATM   13  C   UNL     1      -2.601  12.703  13.885  1.00  0.00     0.204 C 
BRANCH  10  14
HETATM   14  C   UNL     1       0.638  13.384  11.912  1.00  0.00     0.198 C 
BRANCH  14  15
HETATM   15  O   UNL     1       1.969  12.896  12.084  1.00  0.00    -0.398 OA
HETATM   16  H   UNL     1       2.481  13.199  11.309  1.00  0.00     0.209 HD
ENDBRANCH  14  15
ENDBRANCH  10  14
BRANCH  11  17
HETATM   17  O   UNL     1       0.254  10.346  13.431  1.00  0.00    -0.348 OA
BRANCH  17  18
HETATM   18  C   UNL     1       1.301  10.232  14.388  1.00  0.00     0.292 C 
HETATM   19  O   UNL     1       2.457  10.919  13.891  1.00  0.00    -0.351 OA
HETATM   20  C   UNL     1       3.398  11.235  14.936  1.00  0.00     0.150 C 
HETATM   21  C   UNL     1       3.425  10.125  16.004  1.00  0.00     0.068 C 
HETATM   22  C   UNL     1       3.105   8.772  15.349  1.00  0.00     0.154 C 
HETATM   23  C   UNL     1       1.667   8.731  14.731  1.00  0.00     0.205 C 
BRANCH  20  24
HETATM   24  C   UNL     1       3.159  12.654  15.474  1.00  0.00     0.196 C 
BRANCH  24  25
HETATM   25  O   UNL     1       3.465  13.645  14.497  1.00  0.00    -0.398 OA
HETATM   26  H   UNL     1       2.682  14.195  14.337  1.00  0.00     0.209 HD
ENDBRANCH  24  25
ENDBRANCH  20  24
BRANCH  22  27
HETATM   27  O   UNL     1       4.089   8.560  14.322  1.00  0.00    -0.393 OA
HETATM   28  H   UNL     1       4.966   8.736  14.717  1.00  0.00     0.210 HD
ENDBRANCH  22  27
BRANCH  23  29
HETATM   29  O   UNL     1       1.603   7.815  13.549  1.00  0.00    -0.377 OA
BRANCH  29  30
HETATM   30  C   UNL     1       1.150   6.415  13.770  1.00  0.00     0.185 C 
BRANCH  30  31
HETATM   31  C   UNL     1       0.043   5.882  12.722  1.00  0.00     0.039 C 
HETATM   32  C   UNL     1      -0.250   4.403  13.014  1.00  0.00     0.025 C 
BRANCH  31  33
HETATM   33  C   UNL     1       0.493   6.096  11.177  1.00  0.00     0.036 C 
BRANCH  33  34
HETATM   34  C   UNL     1       2.017   5.971  10.614  1.00  0.00     0.019 C 
HETATM   35  C   UNL     1       2.560   7.420  10.740  1.00  0.00     0.023 C 
BRANCH  34  36
HETATM   36  C   UNL     1       1.969   5.517   9.057  1.00  0.00     0.033 C 
BRANCH  36  37
HETATM   37  C   UNL     1       1.043   6.114   7.842  1.00  0.00     0.019 C 
HETATM   38  C   UNL     1      -0.391   5.576   7.976  1.00  0.00     0.023 C 
BRANCH  37  39
HETATM   39  C   UNL     1       1.698   5.550   6.491  1.00  0.00     0.033 C 
BRANCH  39  40
HETATM   40  C   UNL     1       1.073   5.389   4.997  1.00  0.00     0.019 C 
HETATM   41  C   UNL     1       0.620   6.822   4.608  1.00  0.00     0.023 C 
BRANCH  40  42
HETATM   42  C   UNL     1       2.001   4.815   3.875  1.00  0.00     0.033 C 
BRANCH  42  43
HETATM   43  C   UNL     1       3.195   5.563   3.166  1.00  0.00     0.014 C 
HETATM   44  C   UNL     1       4.191   4.461   2.710  1.00  0.00     0.023 C 
HETATM   45  C   UNL     1       4.024   6.468   4.098  1.00  0.00     0.023 C 
BRANCH  43  46
HETATM   46  C   UNL     1       2.726   6.410   1.958  1.00  0.00     0.136 C 
HETATM   47  O   UNL     1       3.284   7.481   1.702  1.00  0.00    -0.297 OA
BRANCH  46  48
HETATM   48  C   UNL     1       1.514   5.981   1.135  1.00  0.00     0.109 C 
BRANCH  48  49
HETATM   49  C   UNL     1       0.997   7.149   0.280  1.00  0.00     0.279 C 
BRANCH  49  50
HETATM   50  N   UNL     1      -0.473   7.294   0.340  1.00  0.00     0.080 N 
HETATM   51  C   UNL     1      -0.907   8.640  -0.036  1.00  0.00     0.309 C 
HETATM   52  C   UNL     1      -1.115   6.316  -0.546  1.00  0.00     0.309 C 
ENDBRANCH  49  50
ENDBRANCH  48  49
ENDBRANCH  46  48
ENDBRANCH  43  46
ENDBRANCH  42  43
ENDBRANCH  40  42
BRANCH  40  53
HETATM   53  C   UNL     1      -0.241   4.553   5.141  1.00  0.00     0.137 C 
HETATM   54  O   UNL     1      -0.217   3.349   5.375  1.00  0.00    -0.297 OA
BRANCH  53  55
HETATM   55  C   UNL     1      -1.556   5.215   4.785  1.00  0.00     0.109 C 
BRANCH  55  56
HETATM   56  C   UNL     1      -2.095   4.776   3.423  1.00  0.00     0.279 C 
BRANCH  56  57
HETATM   57  N   UNL     1      -3.226   5.650   3.046  1.00  0.00     0.080 N 
HETATM   58  C   UNL     1      -2.830   7.060   3.072  1.00  0.00     0.309 C 
HETATM   59  C   UNL     1      -3.753   5.306   1.729  1.00  0.00     0.309 C 
ENDBRANCH  56  57
ENDBRANCH  55  56
ENDBRANCH  53  55
ENDBRANCH  40  53
ENDBRANCH  39  40
ENDBRANCH  37  39
BRANCH  37  60
HETATM   60  C   UNL     1       0.924   7.657   7.721  1.00  0.00     0.137 C 
HETATM   61  O   UNL     1       1.889   8.316   7.317  1.00  0.00    -0.297 OA
BRANCH  60  62
HETATM   62  C   UNL     1      -0.353   8.389   8.053  1.00  0.00     0.109 C 
BRANCH  62  63
HETATM   63  C   UNL     1      -0.514   9.728   7.317  1.00  0.00     0.279 C 
BRANCH  63  64
HETATM   64  N   UNL     1      -0.747  10.845   8.258  1.00  0.00     0.080 N 
HETATM   65  C   UNL     1       0.495  11.563   8.556  1.00  0.00     0.309 C 
HETATM   66  C   UNL     1      -1.725  11.781   7.695  1.00  0.00     0.309 C 
ENDBRANCH  63  64
ENDBRANCH  62  63
ENDBRANCH  60  62
ENDBRANCH  37  60
ENDBRANCH  36  37
ENDBRANCH  34  36
BRANCH  34  67
HETATM   67  C   UNL     1       3.007   5.002  11.328  1.00  0.00     0.137 C 
HETATM   68  O   UNL     1       4.081   5.457  11.739  1.00  0.00    -0.297 OA
BRANCH  67  69
HETATM   69  C   UNL     1       2.711   3.506  11.509  1.00  0.00     0.109 C 
BRANCH  69  70
HETATM   70  C   UNL     1       3.144   2.974  12.897  1.00  0.00     0.279 C 
BRANCH  70  71
HETATM   71  N   UNL     1       2.283   2.006  13.609  1.00  0.00     0.080 N 
HETATM   72  C   UNL     1       1.819   0.921  12.761  1.00  0.00     0.309 C 
HETATM   73  C   UNL     1       3.036   1.424  14.730  1.00  0.00     0.309 C 
ENDBRANCH  70  71
ENDBRANCH  69  70
ENDBRANCH  67  69
ENDBRANCH  34  67
ENDBRANCH  33  34
ENDBRANCH  31  33
BRANCH  31  74
HETATM   74  C   UNL     1      -1.155   6.835  12.957  1.00  0.00     0.139 C 
HETATM   75  O   UNL     1      -1.266   7.879  12.299  1.00  0.00    -0.297 OA
BRANCH  74  76
HETATM   76  C   UNL     1      -2.133   6.594  14.085  1.00  0.00     0.109 C 
BRANCH  76  77
HETATM   77  C   UNL     1      -1.740   7.447  15.277  1.00  0.00     0.279 C 
BRANCH  77  78
HETATM   78  N   UNL     1      -2.817   7.682  16.248  1.00  0.00     0.080 N 
HETATM   79  C   UNL     1      -3.402   6.422  16.709  1.00  0.00     0.309 C 
HETATM   80  C   UNL     1      -3.861   8.516  15.642  1.00  0.00     0.309 C 
ENDBRANCH  77  78
ENDBRANCH  76  77
ENDBRANCH  74  76
ENDBRANCH  31  74
ENDBRANCH  30  31
ENDBRANCH  29  30
ENDBRANCH  23  29
ENDBRANCH  17  18
ENDBRANCH  11  17
BRANCH  12  81
HETATM   81  O   UNL     1      -2.457  10.358  13.175  1.00  0.00    -0.390 OA
HETATM   82  H   UNL     1      -2.689  10.786  12.325  1.00  0.00     0.210 HD
ENDBRANCH  12  81
BRANCH  13  83
HETATM   83  O   UNL     1      -3.978  12.490  14.379  1.00  0.00    -0.388 OA
HETATM   84  H   UNL     1      -4.550  13.203  14.059  1.00  0.00     0.210 HD
ENDBRANCH  13  83
ENDBRANCH   7   8
ENDBRANCH   1   7
BRANCH   2  85
HETATM   85  C   UNL     1      -3.442  14.869   8.628  1.00  0.00     0.198 C 
BRANCH  85  86
HETATM   86  O   UNL     1      -2.263  15.384   9.231  1.00  0.00    -0.398 OA
HETATM   87  H   UNL     1      -1.767  14.639   9.614  1.00  0.00     0.209 HD
ENDBRANCH  85  86
ENDBRANCH   2  85
BRANCH   3  88
HETATM   88  O   UNL     1      -6.168  14.683  12.234  1.00  0.00    -0.390 OA
HETATM   89  H   UNL     1      -5.989  14.502  13.180  1.00  0.00     0.210 HD
ENDBRANCH   3  88
BRANCH   4  90
HETATM   90  O   UNL     1      -6.705  17.418  11.443  1.00  0.00    -0.388 OA
HETATM   91  H   UNL     1      -7.449  16.852  11.700  1.00  0.00     0.210 HD
ENDBRANCH   4  90
BRANCH   5  92
HETATM   92  O   UNL     1      -7.574  15.990   9.326  1.00  0.00    -0.348 OA
BRANCH  92  93
HETATM   93  C   UNL     1      -8.243  14.740   8.988  1.00  0.00     0.187 C 
HETATM   94  C   UNL     1      -9.334  14.416  10.024  1.00  0.00     0.180 C 
HETATM   95  O   UNL     1     -10.625  14.239   9.442  1.00  0.00    -0.348 OA
HETATM   96  C   UNL     1     -10.718  13.412   8.284  1.00  0.00     0.292 C 
HETATM   97  C   UNL     1      -9.791  13.824   7.057  1.00  0.00     0.208 C 
HETATM   98  C   UNL     1      -8.876  14.970   7.581  1.00  0.00     0.183 C 
BRANCH  94  99
HETATM   99  C   UNL     1      -9.012  13.193  10.897  1.00  0.00     0.198 C 
BRANCH  99 100
HETATM  100  O   UNL     1      -7.674  12.755  10.664  1.00  0.00    -0.398 OA
HETATM  101  H   UNL     1      -7.081  13.307  11.212  1.00  0.00     0.209 HD
ENDBRANCH  99 100
ENDBRANCH  94  99
BRANCH  96 102
HETATM  102  O   UNL     1     -12.093  13.515   7.917  1.00  0.00    -0.348 OA
BRANCH 102 103
HETATM  103  C   UNL     1     -13.021  13.467   8.989  1.00  0.00     0.187 C 
HETATM  104  C   UNL     1     -14.144  14.499   8.764  1.00  0.00     0.176 C 
HETATM  105  O   UNL     1     -15.417  14.055   9.291  1.00  0.00    -0.378 OA
HETATM  106  C   UNL     1     -15.301  13.293  10.497  1.00  0.00     0.202 C 
HETATM  107  C   UNL     1     -14.571  11.952  10.258  1.00  0.00     0.173 C 
HETATM  108  C   UNL     1     -13.631  12.054   9.036  1.00  0.00     0.180 C 
BRANCH 104 109
HETATM  109  C   UNL     1     -13.819  15.879   9.348  1.00  0.00     0.198 C 
BRANCH 109 110
HETATM  110  O   UNL     1     -12.567  16.340   8.841  1.00  0.00    -0.398 OA
HETATM  111  H   UNL     1     -11.886  15.749   9.216  1.00  0.00     0.209 HD
ENDBRANCH 109 110
ENDBRANCH 104 109
BRANCH 107 112
HETATM  112  O   UNL     1     -15.519  10.832  10.103  1.00  0.00    -0.391 OA
HETATM  113  H   UNL     1     -15.043  10.046   9.795  1.00  0.00     0.210 HD
ENDBRANCH 107 112
BRANCH 108 114
HETATM  114  O   UNL     1     -14.352  11.735   7.829  1.00  0.00    -0.390 OA
HETATM  115  H   UNL     1     -13.868  12.135   7.083  1.00  0.00     0.210 HD
ENDBRANCH 108 114
ENDBRANCH 102 103
ENDBRANCH  96 102
BRANCH  97 116
HETATM  116  O   UNL     1     -10.637  14.170   5.862  1.00  0.00    -0.369 OA
BRANCH 116 117
HETATM  117  C   UNL     1     -10.998  13.285   4.745  1.00  0.00     0.168 C 
BRANCH 117 118
HETATM  118  C   UNL     1     -10.963  13.796   3.223  1.00  0.00     0.046 C 
HETATM  119  C   UNL     1     -11.134  15.322   3.300  1.00  0.00     0.026 C 
BRANCH 118 120
HETATM  120  C   UNL     1     -11.969  13.165   2.090  1.00  0.00     0.036 C 
BRANCH 120 121
HETATM  121  C   UNL     1     -12.786  11.729   2.289  1.00  0.00     0.019 C 
HETATM  122  C   UNL     1     -13.426  11.557   0.883  1.00  0.00     0.023 C 
BRANCH 121 123
HETATM  123  C   UNL     1     -11.961  10.454   2.644  1.00  0.00     0.137 C 
HETATM  124  O   UNL     1     -11.332   9.895   1.737  1.00  0.00    -0.297 OA
BRANCH 123 125
HETATM  125  C   UNL     1     -11.932   9.862   4.066  1.00  0.00     0.109 C 
BRANCH 125 126
HETATM  126  C   UNL     1     -10.520   9.415   4.509  1.00  0.00     0.279 C 
BRANCH 126 127
HETATM  127  N   UNL     1     -10.126   9.535   5.927  1.00  0.00     0.080 N 
HETATM  128  C   UNL     1     -11.181  10.246   6.661  1.00  0.00     0.309 C 
HETATM  129  C   UNL     1      -8.875  10.250   6.117  1.00  0.00     0.309 C 
ENDBRANCH 126 127
ENDBRANCH 125 126
ENDBRANCH 123 125
ENDBRANCH 121 123
BRANCH 121 130
HETATM  130  C   UNL     1     -13.963  11.788   3.433  1.00  0.00     0.033 C 
BRANCH 130 131
HETATM  131  C   UNL     1     -15.316  12.772   3.453  1.00  0.00     0.019 C 
HETATM  132  C   UNL     1     -16.410  12.124   2.587  1.00  0.00     0.023 C 
BRANCH 131 133
HETATM  133  C   UNL     1     -15.974  13.099   4.824  1.00  0.00     0.137 C 
HETATM  134  O   UNL     1     -15.261  13.414   5.785  1.00  0.00    -0.297 OA
BRANCH 133 135
HETATM  135  C   UNL     1     -17.468  13.062   5.026  1.00  0.00     0.109 C 
BRANCH 135 136
HETATM  136  C   UNL     1     -17.963  13.784   6.291  1.00  0.00     0.279 C 
BRANCH 136 137
HETATM  137  N   UNL     1     -18.777  12.897   7.152  1.00  0.00     0.080 N 
HETATM  138  C   UNL     1     -17.935  11.850   7.740  1.00  0.00     0.309 C 
HETATM  139  C   UNL     1     -19.869  12.274   6.402  1.00  0.00     0.309 C 
ENDBRANCH 136 137
ENDBRANCH 135 136
ENDBRANCH 133 135
ENDBRANCH 131 133
BRANCH 131 140
HETATM  140  C   UNL     1     -14.891  14.173   2.787  1.00  0.00     0.033 C 
BRANCH 140 141
HETATM  141  C   UNL     1     -15.747  15.205   1.835  1.00  0.00     0.019 C 
HETATM  142  C   UNL     1     -15.507  14.692   0.389  1.00  0.00     0.023 C 
BRANCH 141 143
HETATM  143  C   UNL     1     -17.294  15.349   2.078  1.00  0.00     0.033 C 
BRANCH 143 144
HETATM  144  C   UNL     1     -18.423  15.432   0.973  1.00  0.00     0.014 C 
HETATM  145  C   UNL     1     -19.778  15.499   1.734  1.00  0.00     0.023 C 
HETATM  146  C   UNL     1     -18.548  14.175   0.086  1.00  0.00     0.023 C 
BRANCH 144 147
HETATM  147  C   UNL     1     -18.266  16.662   0.042  1.00  0.00     0.136 C 
HETATM  148  O   UNL     1     -17.913  16.506  -1.131  1.00  0.00    -0.297 OA
BRANCH 147 149
HETATM  149  C   UNL     1     -18.450  18.077   0.586  1.00  0.00     0.109 C 
BRANCH 149 150
HETATM  150  C   UNL     1     -17.489  19.061  -0.103  1.00  0.00     0.279 C 
BRANCH 150 151
HETATM  151  N   UNL     1     -18.196  20.105  -0.877  1.00  0.00     0.080 N 
HETATM  152  C   UNL     1     -18.098  19.883  -2.320  1.00  0.00     0.309 C 
HETATM  153  C   UNL     1     -19.611  20.151  -0.491  1.00  0.00     0.309 C 
ENDBRANCH 150 151
ENDBRANCH 149 150
ENDBRANCH 147 149
ENDBRANCH 144 147
ENDBRANCH 143 144
ENDBRANCH 141 143
BRANCH 141 154
HETATM  154  C   UNL     1     -15.040  16.596   1.915  1.00  0.00     0.137 C 
HETATM  155  O   UNL     1     -13.972  16.814   1.333  1.00  0.00    -0.297 OA
BRANCH 154 156
HETATM  156  C   UNL     1     -15.578  17.627   2.883  1.00  0.00     0.109 C 
BRANCH 156 157
HETATM  157  C   UNL     1     -15.035  17.467   4.305  1.00  0.00     0.279 C 
BRANCH 157 158
HETATM  158  N   UNL     1     -16.102  17.809   5.270  1.00  0.00     0.080 N 
HETATM  159  C   UNL     1     -16.075  19.225   5.624  1.00  0.00     0.309 C 
HETATM  160  C   UNL     1     -15.996  16.992   6.481  1.00  0.00     0.309 C 
ENDBRANCH 157 158
ENDBRANCH 156 157
ENDBRANCH 154 156
ENDBRANCH 141 154
ENDBRANCH 140 141
ENDBRANCH 131 140
ENDBRANCH 130 131
ENDBRANCH 121 130
ENDBRANCH 120 121
ENDBRANCH 118 120
BRANCH 118 161
HETATM  161  C   UNL     1      -9.552  13.278   2.821  1.00  0.00     0.139 C 
HETATM  162  O   UNL     1      -8.961  12.423   3.494  1.00  0.00    -0.297 OA
BRANCH 161 163
HETATM  163  C   UNL     1      -8.817  13.904   1.661  1.00  0.00     0.109 C 
BRANCH 163 164
HETATM  164  C   UNL     1      -8.282  12.813   0.761  1.00  0.00     0.279 C 
BRANCH 164 165
HETATM  165  N   UNL     1      -8.719  12.880  -0.641  1.00  0.00     0.080 N 
HETATM  166  C   UNL     1      -7.903  12.011  -1.490  1.00  0.00     0.309 C 
HETATM  167  C   UNL     1      -8.601  14.260  -1.123  1.00  0.00     0.309 C 
ENDBRANCH 164 165
ENDBRANCH 163 164
ENDBRANCH 161 163
ENDBRANCH 118 161
ENDBRANCH 117 118
ENDBRANCH 116 117
ENDBRANCH  97 116
BRANCH  98 168
HETATM  168  O   UNL     1      -9.636  16.198   7.617  1.00  0.00    -0.390 OA
HETATM  169  H   UNL     1      -9.401  16.691   6.805  1.00  0.00     0.210 HD
ENDBRANCH  98 168
ENDBRANCH  92  93
ENDBRANCH   5  92
TORSDOF 88
ENDMDL
MODEL 9
REMARK VINA RESULT:      -5.5      2.352      6.049
REMARK WARNING: 32 MAX_TORS EXCEEDED!!!
REMARK  88 active torsions:
REMARK  status: ('A' for Active; 'I' for Inactive)
REMARK    1  A    between atoms: C_1  and  O_28 
REMARK    2  A    between atoms: C_2  and  C_6 
REMARK    3  A    between atoms: C_3  and  O_8 
REMARK    4  A    between atoms: C_4  and  O_10 
REMARK    5  A    between atoms: C_5  and  O_11 
REMARK    6  A    between atoms: C_6  and  O_58 
REMARK    7  A    between atoms: O_11  and  C_18 
REMARK    8  A    between atoms: O_13  and  C_16 
REMARK    9  A    between atoms: C_15  and  C_21 
REMARK   10  A    between atoms: O_17  and  C_20 
REMARK   11  A    between atoms: O_17  and  C_39 
REMARK   12  A    between atoms: O_19  and  C_22 
REMARK   13  A    between atoms: O_19  and  C_153 
REMARK   14  A    between atoms: C_21  and  O_60 
REMARK   15  A    between atoms: O_24  and  C_27 
REMARK   16  A    between atoms: C_26  and  C_32 
REMARK   17  A    between atoms: O_28  and  C_31 
REMARK   18  A    between atoms: C_29  and  O_49 
REMARK   19  A    between atoms: O_30  and  C_33 
REMARK   20  A    between atoms: C_32  and  O_56 
REMARK   21  A    between atoms: O_35  and  C_38 
REMARK   22  A    between atoms: C_37  and  C_42 
REMARK   23  A    between atoms: O_40  and  C_43 
REMARK   24  A    between atoms: C_42  and  O_62 
REMARK   25  A    between atoms: O_45  and  C_48 
REMARK   26  A    between atoms: C_47  and  C_53 
REMARK   27  A    between atoms: O_49  and  C_52 
REMARK   28  A    between atoms: O_51  and  C_54 
REMARK   29  A    between atoms: O_51  and  C_64 
REMARK   30  A    between atoms: C_53  and  O_55 
REMARK   31  A    between atoms: C_64  and  C_65 
REMARK   32  A    between atoms: C_65  and  C_66 
REMARK   33  A    between atoms: C_65  and  C_75 
REMARK   34  A    between atoms: C_66  and  C_67 
REMARK   35  A    between atoms: C_67  and  C_68 
REMARK   36  A    between atoms: C_67  and  C_79 
REMARK   37  A    between atoms: C_68  and  C_69 
REMARK   38  A    between atoms: C_69  and  C_70 
REMARK   39  A    between atoms: C_69  and  C_83 
REMARK   40  A    between atoms: C_70  and  C_71 
REMARK   41  A    between atoms: C_71  and  C_72 
REMARK   42  A    between atoms: C_71  and  C_87 
REMARK   43  A    between atoms: C_72  and  C_73 
REMARK   44  A    between atoms: C_73  and  C_91 
REMARK   45  A    between atoms: C_75  and  C_76 
REMARK   46  A    between atoms: C_76  and  C_77 
REMARK   47  A    between atoms: C_77  and  N_95 
REMARK   48  A    between atoms: C_79  and  C_80 
REMARK   49  A    between atoms: C_80  and  C_81 
REMARK   50  A    between atoms: C_81  and  N_96 
REMARK   51  A    between atoms: C_83  and  C_84 
REMARK   52  A    between atoms: C_84  and  C_85 
REMARK   53  A    between atoms: C_85  and  N_97 
REMARK   54  A    between atoms: C_87  and  C_88 
REMARK   55  A    between atoms: C_88  and  C_89 
REMARK   56  A    between atoms: C_89  and  N_98 
REMARK   57  A    between atoms: C_91  and  C_92 
REMARK   58  A    between atoms: C_92  and  C_93 
REMARK   59  A    between atoms: C_93  and  N_99 
REMARK   60  A    between atoms: N_118  and  C_121 
REMARK   61  A    between atoms: C_121  and  C_127 
REMARK   62  A    between atoms: C_122  and  C_127 
REMARK   63  A    between atoms: C_122  and  C_134 
REMARK   64  A    between atoms: N_124  and  C_131 
REMARK   65  A    between atoms: C_128  and  C_129 
REMARK   66  A    between atoms: C_128  and  C_138 
REMARK   67  A    between atoms: C_129  and  C_131 
REMARK   68  A    between atoms: N_133  and  C_144 
REMARK   69  A    between atoms: C_134  and  C_145 
REMARK   70  A    between atoms: C_134  and  C_151 
REMARK   71  A    between atoms: C_136  and  C_144 
REMARK   72  A    between atoms: C_136  and  C_148 
REMARK   73  A    between atoms: C_138  and  C_154 
REMARK   74  A    between atoms: C_138  and  C_145 
REMARK   75  A    between atoms: C_140  and  C_148 
REMARK   76  A    between atoms: C_140  and  C_141 
REMARK   77  A    between atoms: C_141  and  C_155 
REMARK   78  A    between atoms: C_142  and  C_153 
REMARK   79  A    between atoms: C_142  and  C_151 
REMARK   80  A    between atoms: C_142  and  C_152 
REMARK   81  A    between atoms: C_143  and  N_149 
REMARK   82  A    between atoms: C_143  and  C_146 
REMARK   83  A    between atoms: C_146  and  C_152 
REMARK   84  A    between atoms: C_154  and  C_155 
REMARK   85  A    between atoms: C_155  and  C_161 
REMARK   86  A    between atoms: C_158  and  C_163 
REMARK   87  A    between atoms: C_158  and  C_161 
REMARK   88  A    between atoms: N_159  and  C_163 
ROOT
HETATM    1  C   UNL     1      -3.734  14.562  11.617  1.00  0.00     0.187 C 
HETATM    2  C   UNL     1      -3.769  14.221  10.110  1.00  0.00     0.180 C 
HETATM    3  C   UNL     1      -5.030  15.281  12.047  1.00  0.00     0.183 C 
HETATM    4  C   UNL     1      -5.434  16.382  11.037  1.00  0.00     0.204 C 
HETATM    5  C   UNL     1      -5.540  15.796   9.586  1.00  0.00     0.292 C 
HETATM    6  O   UNL     1      -5.071  14.445   9.538  1.00  0.00    -0.348 OA
ENDROOT
BRANCH   1   7
HETATM    7  O   UNL     1      -3.607  13.337  12.353  1.00  0.00    -0.348 OA
BRANCH   7   8
HETATM    8  C   UNL     1      -2.414  13.223  13.142  1.00  0.00     0.292 C 
HETATM    9  O   UNL     1      -1.318  13.322  12.236  1.00  0.00    -0.348 OA
HETATM   10  C   UNL     1      -0.020  12.969  12.742  1.00  0.00     0.180 C 
HETATM   11  C   UNL     1       0.008  11.723  13.652  1.00  0.00     0.187 C 
HETATM   12  C   UNL     1      -1.308  10.955  13.604  1.00  0.00     0.183 C 
HETATM   13  C   UNL     1      -2.457  11.897  13.976  1.00  0.00     0.204 C 
BRANCH  10  14
HETATM   14  C   UNL     1       0.584  14.202  13.433  1.00  0.00     0.198 C 
BRANCH  14  15
HETATM   15  O   UNL     1       2.009  14.169  13.358  1.00  0.00    -0.398 OA
HETATM   16  H   UNL     1       2.331  14.984  13.789  1.00  0.00     0.209 HD
ENDBRANCH  14  15
ENDBRANCH  10  14
BRANCH  11  17
HETATM   17  O   UNL     1       1.029  10.820  13.200  1.00  0.00    -0.348 OA
BRANCH  17  18
HETATM   18  C   UNL     1       1.967  10.476  14.213  1.00  0.00     0.292 C 
HETATM   19  O   UNL     1       3.289  10.750  13.731  1.00  0.00    -0.351 OA
HETATM   20  C   UNL     1       4.251  10.853  14.799  1.00  0.00     0.150 C 
HETATM   21  C   UNL     1       3.915   9.871  15.938  1.00  0.00     0.068 C 
HETATM   22  C   UNL     1       3.224   8.627  15.357  1.00  0.00     0.154 C 
HETATM   23  C   UNL     1       1.858   8.966  14.672  1.00  0.00     0.205 C 
BRANCH  20  24
HETATM   24  C   UNL     1       4.432  12.316  15.231  1.00  0.00     0.196 C 
BRANCH  24  25
HETATM   25  O   UNL     1       4.617  12.429  16.640  1.00  0.00    -0.398 OA
HETATM   26  H   UNL     1       3.897  12.956  17.020  1.00  0.00     0.209 HD
ENDBRANCH  24  25
ENDBRANCH  20  24
BRANCH  22  27
HETATM   27  O   UNL     1       4.129   8.054  14.397  1.00  0.00    -0.393 OA
HETATM   28  H   UNL     1       5.034   8.314  14.659  1.00  0.00     0.210 HD
ENDBRANCH  22  27
BRANCH  23  29
HETATM   29  O   UNL     1       1.557   8.020  13.550  1.00  0.00    -0.377 OA
BRANCH  29  30
HETATM   30  C   UNL     1       1.061   6.660  13.893  1.00  0.00     0.185 C 
BRANCH  30  31
HETATM   31  C   UNL     1      -0.013   6.044  12.857  1.00  0.00     0.039 C 
HETATM   32  C   UNL     1      -0.075   4.521  13.049  1.00  0.00     0.025 C 
BRANCH  31  33
HETATM   33  C   UNL     1       0.315   6.428  11.314  1.00  0.00     0.036 C 
BRANCH  33  34
HETATM   34  C   UNL     1       1.784   6.338  10.614  1.00  0.00     0.019 C 
HETATM   35  C   UNL     1       2.205   7.827  10.487  1.00  0.00     0.023 C 
BRANCH  34  36
HETATM   36  C   UNL     1       1.629   5.664   9.147  1.00  0.00     0.033 C 
BRANCH  36  37
HETATM   37  C   UNL     1       0.722   6.169   7.876  1.00  0.00     0.019 C 
HETATM   38  C   UNL     1      -0.726   5.684   8.053  1.00  0.00     0.023 C 
BRANCH  37  39
HETATM   39  C   UNL     1       1.365   5.465   6.588  1.00  0.00     0.033 C 
BRANCH  39  40
HETATM   40  C   UNL     1       0.763   5.237   5.093  1.00  0.00     0.019 C 
HETATM   41  C   UNL     1       0.227   3.779   5.107  1.00  0.00     0.023 C 
BRANCH  40  42
HETATM   42  C   UNL     1      -0.371   6.202   4.607  1.00  0.00     0.033 C 
BRANCH  42  43
HETATM   43  C   UNL     1      -1.764   5.785   3.997  1.00  0.00     0.014 C 
HETATM   44  C   UNL     1      -2.810   5.974   5.131  1.00  0.00     0.023 C 
HETATM   45  C   UNL     1      -1.876   4.296   3.617  1.00  0.00     0.023 C 
BRANCH  43  46
HETATM   46  C   UNL     1      -2.143   6.633   2.758  1.00  0.00     0.136 C 
HETATM   47  O   UNL     1      -2.255   7.858   2.860  1.00  0.00    -0.297 OA
BRANCH  46  48
HETATM   48  C   UNL     1      -2.478   5.957   1.431  1.00  0.00     0.109 C 
BRANCH  48  49
HETATM   49  C   UNL     1      -2.020   6.825   0.248  1.00  0.00     0.279 C 
BRANCH  49  50
HETATM   50  N   UNL     1      -3.148   7.327  -0.563  1.00  0.00     0.080 N 
HETATM   51  C   UNL     1      -2.937   7.105  -1.994  1.00  0.00     0.309 C 
HETATM   52  C   UNL     1      -4.397   6.674  -0.153  1.00  0.00     0.309 C 
ENDBRANCH  49  50
ENDBRANCH  48  49
ENDBRANCH  46  48
ENDBRANCH  43  46
ENDBRANCH  42  43
ENDBRANCH  40  42
BRANCH  40  53
HETATM   53  C   UNL     1       1.977   5.233   4.108  1.00  0.00     0.137 C 
HETATM   54  O   UNL     1       3.118   5.469   4.491  1.00  0.00    -0.297 OA
BRANCH  53  55
HETATM   55  C   UNL     1       1.697   5.131   2.623  1.00  0.00     0.109 C 
BRANCH  55  56
HETATM   56  C   UNL     1       2.970   5.091   1.777  1.00  0.00     0.279 C 
BRANCH  56  57
HETATM   57  N   UNL     1       3.216   6.435   1.212  1.00  0.00     0.080 N 
HETATM   58  C   UNL     1       4.082   6.356   0.033  1.00  0.00     0.309 C 
HETATM   59  C   UNL     1       1.968   7.107   0.867  1.00  0.00     0.309 C 
ENDBRANCH  56  57
ENDBRANCH  55  56
ENDBRANCH  53  55
ENDBRANCH  40  53
ENDBRANCH  39  40
ENDBRANCH  37  39
BRANCH  37  60
HETATM   60  C   UNL     1       0.644   7.697   7.611  1.00  0.00     0.137 C 
HETATM   61  O   UNL     1       1.493   8.238   6.894  1.00  0.00    -0.297 OA
BRANCH  60  62
HETATM   62  C   UNL     1      -0.463   8.552   8.178  1.00  0.00     0.109 C 
BRANCH  62  63
HETATM   63  C   UNL     1      -0.759   9.815   7.357  1.00  0.00     0.279 C 
BRANCH  63  64
HETATM   64  N   UNL     1      -0.316  11.040   8.057  1.00  0.00     0.080 N 
HETATM   65  C   UNL     1       0.012  10.767   9.458  1.00  0.00     0.309 C 
HETATM   66  C   UNL     1       0.859  11.605   7.386  1.00  0.00     0.309 C 
ENDBRANCH  63  64
ENDBRANCH  62  63
ENDBRANCH  60  62
ENDBRANCH  37  60
ENDBRANCH  36  37
ENDBRANCH  34  36
BRANCH  34  67
HETATM   67  C   UNL     1       2.919   5.558  11.343  1.00  0.00     0.137 C 
HETATM   68  O   UNL     1       3.879   6.197  11.789  1.00  0.00    -0.297 OA
BRANCH  67  69
HETATM   69  C   UNL     1       2.903   4.030  11.495  1.00  0.00     0.109 C 
BRANCH  69  70
HETATM   70  C   UNL     1       3.454   3.559  12.864  1.00  0.00     0.279 C 
BRANCH  70  71
HETATM   71  N   UNL     1       2.995   2.275  13.433  1.00  0.00     0.080 N 
HETATM   72  C   UNL     1       2.504   2.395  14.796  1.00  0.00     0.309 C 
HETATM   73  C   UNL     1       1.910   1.737  12.598  1.00  0.00     0.309 C 
ENDBRANCH  70  71
ENDBRANCH  69  70
ENDBRANCH  67  69
ENDBRANCH  34  67
ENDBRANCH  33  34
ENDBRANCH  31  33
BRANCH  31  74
HETATM   74  C   UNL     1      -1.321   6.793  13.217  1.00  0.00     0.139 C 
HETATM   75  O   UNL     1      -1.804   7.624  12.437  1.00  0.00    -0.297 OA
BRANCH  74  76
HETATM   76  C   UNL     1      -1.958   6.636  14.580  1.00  0.00     0.109 C 
BRANCH  76  77
HETATM   77  C   UNL     1      -2.186   8.011  15.183  1.00  0.00     0.279 C 
BRANCH  77  78
HETATM   78  N   UNL     1      -2.789   8.002  16.524  1.00  0.00     0.080 N 
HETATM   79  C   UNL     1      -1.773   8.145  17.566  1.00  0.00     0.309 C 
HETATM   80  C   UNL     1      -3.531   6.752  16.727  1.00  0.00     0.309 C 
ENDBRANCH  77  78
ENDBRANCH  76  77
ENDBRANCH  74  76
ENDBRANCH  31  74
ENDBRANCH  30  31
ENDBRANCH  29  30
ENDBRANCH  23  29
ENDBRANCH  17  18
ENDBRANCH  11  17
BRANCH  12  81
HETATM   81  O   UNL     1      -1.504  10.366  12.311  1.00  0.00    -0.390 OA
HETATM   82  H   UNL     1      -1.181   9.446  12.402  1.00  0.00     0.210 HD
ENDBRANCH  12  81
BRANCH  13  83
HETATM   83  O   UNL     1      -3.737  11.160  13.950  1.00  0.00    -0.388 OA
HETATM   84  H   UNL     1      -4.472  11.785  14.051  1.00  0.00     0.210 HD
ENDBRANCH  13  83
ENDBRANCH   7   8
ENDBRANCH   1   7
BRANCH   2  85
HETATM   85  C   UNL     1      -2.653  14.964   9.352  1.00  0.00     0.198 C 
BRANCH  85  86
HETATM   86  O   UNL     1      -1.484  14.166   9.224  1.00  0.00    -0.398 OA
HETATM   87  H   UNL     1      -0.993  14.208  10.063  1.00  0.00     0.209 HD
ENDBRANCH  85  86
ENDBRANCH   2  85
BRANCH   3  88
HETATM   88  O   UNL     1      -6.106  14.343  12.209  1.00  0.00    -0.390 OA
HETATM   89  H   UNL     1      -5.989  13.926  13.089  1.00  0.00     0.210 HD
ENDBRANCH   3  88
BRANCH   4  90
HETATM   90  O   UNL     1      -6.662  17.088  11.471  1.00  0.00    -0.388 OA
HETATM   91  H   UNL     1      -7.386  16.451  11.562  1.00  0.00     0.210 HD
ENDBRANCH   4  90
BRANCH   5  92
HETATM   92  O   UNL     1      -6.911  15.766   9.133  1.00  0.00    -0.348 OA
BRANCH  92  93
HETATM   93  C   UNL     1      -7.465  14.454   8.825  1.00  0.00     0.187 C 
HETATM   94  C   UNL     1      -8.741  14.203   9.648  1.00  0.00     0.180 C 
HETATM   95  O   UNL     1      -9.877  13.896   8.840  1.00  0.00    -0.348 OA
HETATM   96  C   UNL     1      -9.706  12.933   7.802  1.00  0.00     0.292 C 
HETATM   97  C   UNL     1      -8.551  13.240   6.749  1.00  0.00     0.208 C 
HETATM   98  C   UNL     1      -7.794  14.484   7.300  1.00  0.00     0.183 C 
BRANCH  94  99
HETATM   99  C   UNL     1      -8.582  13.110  10.716  1.00  0.00     0.198 C 
BRANCH  99 100
HETATM  100  O   UNL     1      -9.857  12.730  11.232  1.00  0.00    -0.398 OA
HETATM  101  H   UNL     1     -10.511  13.386  10.920  1.00  0.00     0.209 HD
ENDBRANCH  99 100
ENDBRANCH  94  99
BRANCH  96 102
HETATM  102  O   UNL     1     -10.975  12.925   7.150  1.00  0.00    -0.348 OA
BRANCH 102 103
HETATM  103  C   UNL     1     -12.085  13.279   7.960  1.00  0.00     0.187 C 
HETATM  104  C   UNL     1     -13.098  14.102   7.138  1.00  0.00     0.176 C 
HETATM  105  O   UNL     1     -14.466  13.866   7.552  1.00  0.00    -0.378 OA
HETATM  106  C   UNL     1     -14.608  13.651   8.960  1.00  0.00     0.202 C 
HETATM  107  C   UNL     1     -13.910  12.349   9.412  1.00  0.00     0.173 C 
HETATM  108  C   UNL     1     -12.759  11.984   8.449  1.00  0.00     0.180 C 
BRANCH 104 109
HETATM  109  C   UNL     1     -12.821  15.610   7.177  1.00  0.00     0.198 C 
BRANCH 109 110
HETATM  110  O   UNL     1     -11.427  15.853   6.994  1.00  0.00    -0.398 OA
HETATM  111  H   UNL     1     -11.038  15.006   6.701  1.00  0.00     0.209 HD
ENDBRANCH 109 110
ENDBRANCH 104 109
BRANCH 107 112
HETATM  112  O   UNL     1     -14.865  11.232   9.541  1.00  0.00    -0.391 OA
HETATM  113  H   UNL     1     -15.760  11.584   9.672  1.00  0.00     0.210 HD
ENDBRANCH 107 112
BRANCH 108 114
HETATM  114  O   UNL     1     -13.261  11.189   7.356  1.00  0.00    -0.390 OA
HETATM  115  H   UNL     1     -14.222  11.343   7.296  1.00  0.00     0.210 HD
ENDBRANCH 108 114
ENDBRANCH 102 103
ENDBRANCH  96 102
BRANCH  97 116
HETATM  116  O   UNL     1      -9.136  13.399   5.372  1.00  0.00    -0.369 OA
BRANCH 116 117
HETATM  117  C   UNL     1      -8.400  13.577   4.112  1.00  0.00     0.168 C 
BRANCH 117 118
HETATM  118  C   UNL     1      -8.513  14.930   3.257  1.00  0.00     0.046 C 
HETATM  119  C   UNL     1      -9.738  15.670   3.820  1.00  0.00     0.026 C 
BRANCH 118 120
HETATM  120  C   UNL     1      -8.570  14.898   1.616  1.00  0.00     0.036 C 
BRANCH 120 121
HETATM  121  C   UNL     1      -9.387  13.736   0.750  1.00  0.00     0.019 C 
HETATM  122  C   UNL     1      -8.220  12.792   0.347  1.00  0.00     0.023 C 
BRANCH 121 123
HETATM  123  C   UNL     1     -10.492  12.912   1.481  1.00  0.00     0.137 C 
HETATM  124  O   UNL     1     -11.568  13.470   1.729  1.00  0.00    -0.297 OA
BRANCH 123 125
HETATM  125  C   UNL     1     -10.273  11.452   1.922  1.00  0.00     0.109 C 
BRANCH 125 126
HETATM  126  C   UNL     1     -11.577  10.623   1.946  1.00  0.00     0.279 C 
BRANCH 126 127
HETATM  127  N   UNL     1     -11.752   9.562   2.958  1.00  0.00     0.080 N 
HETATM  128  C   UNL     1     -12.745   8.595   2.474  1.00  0.00     0.309 C 
HETATM  129  C   UNL     1     -12.193  10.065   4.248  1.00  0.00     0.309 C 
ENDBRANCH 126 127
ENDBRANCH 125 126
ENDBRANCH 123 125
ENDBRANCH 121 123
BRANCH 121 130
HETATM  130  C   UNL     1     -10.129  14.312  -0.598  1.00  0.00     0.033 C 
BRANCH 130 131
HETATM  131  C   UNL     1      -9.442  14.590  -2.097  1.00  0.00     0.019 C 
HETATM  132  C   UNL     1      -8.322  15.633  -1.942  1.00  0.00     0.023 C 
BRANCH 131 133
HETATM  133  C   UNL     1      -8.821  13.386  -2.862  1.00  0.00     0.137 C 
HETATM  134  O   UNL     1      -9.420  12.304  -2.890  1.00  0.00    -0.297 OA
BRANCH 133 135
HETATM  135  C   UNL     1      -7.505  13.492  -3.592  1.00  0.00     0.109 C 
BRANCH 135 136
HETATM  136  C   UNL     1      -7.560  13.090  -5.076  1.00  0.00     0.279 C 
BRANCH 136 137
HETATM  137  N   UNL     1      -6.869  14.072  -5.941  1.00  0.00     0.080 N 
HETATM  138  C   UNL     1      -5.418  13.871  -5.877  1.00  0.00     0.309 C 
HETATM  139  C   UNL     1      -7.184  15.448  -5.551  1.00  0.00     0.309 C 
ENDBRANCH 136 137
ENDBRANCH 135 136
ENDBRANCH 133 135
ENDBRANCH 131 133
BRANCH 131 140
HETATM  140  C   UNL     1     -10.594  15.203  -3.038  1.00  0.00     0.033 C 
BRANCH 140 141
HETATM  141  C   UNL     1     -12.163  14.751  -3.235  1.00  0.00     0.019 C 
HETATM  142  C   UNL     1     -12.244  14.256  -4.706  1.00  0.00     0.023 C 
BRANCH 141 143
HETATM  143  C   UNL     1     -12.755  13.644  -2.289  1.00  0.00     0.033 C 
BRANCH 143 144
HETATM  144  C   UNL     1     -14.268  13.191  -2.190  1.00  0.00     0.014 C 
HETATM  145  C   UNL     1     -14.255  11.734  -1.649  1.00  0.00     0.023 C 
HETATM  146  C   UNL     1     -14.998  13.087  -3.546  1.00  0.00     0.023 C 
BRANCH 144 147
HETATM  147  C   UNL     1     -15.111  14.105  -1.262  1.00  0.00     0.136 C 
HETATM  148  O   UNL     1     -16.038  14.771  -1.731  1.00  0.00    -0.297 OA
BRANCH 147 149
HETATM  149  C   UNL     1     -14.744  14.264   0.212  1.00  0.00     0.109 C 
BRANCH 149 150
HETATM  150  C   UNL     1     -15.964  14.007   1.113  1.00  0.00     0.279 C 
BRANCH 150 151
HETATM  151  N   UNL     1     -16.137  12.578   1.452  1.00  0.00     0.080 N 
HETATM  152  C   UNL     1     -14.913  11.990   2.000  1.00  0.00     0.309 C 
HETATM  153  C   UNL     1     -17.226  12.416   2.423  1.00  0.00     0.309 C 
ENDBRANCH 150 151
ENDBRANCH 149 150
ENDBRANCH 147 149
ENDBRANCH 144 147
ENDBRANCH 143 144
ENDBRANCH 141 143
BRANCH 141 154
HETATM  154  C   UNL     1     -13.025  16.053  -3.177  1.00  0.00     0.137 C 
HETATM  155  O   UNL     1     -13.842  16.328  -4.062  1.00  0.00    -0.297 OA
BRANCH 154 156
HETATM  156  C   UNL     1     -12.707  17.084  -2.117  1.00  0.00     0.109 C 
BRANCH 156 157
HETATM  157  C   UNL     1     -13.948  17.620  -1.399  1.00  0.00     0.279 C 
BRANCH 157 158
HETATM  158  N   UNL     1     -13.523  18.537  -0.319  1.00  0.00     0.080 N 
HETATM  159  C   UNL     1     -13.470  17.859   0.973  1.00  0.00     0.309 C 
HETATM  160  C   UNL     1     -14.413  19.697  -0.236  1.00  0.00     0.309 C 
ENDBRANCH 157 158
ENDBRANCH 156 157
ENDBRANCH 154 156
ENDBRANCH 141 154
ENDBRANCH 140 141
ENDBRANCH 131 140
ENDBRANCH 130 131
ENDBRANCH 121 130
ENDBRANCH 120 121
ENDBRANCH 118 120
BRANCH 118 161
HETATM  161  C   UNL     1      -7.122  15.546   3.584  1.00  0.00     0.139 C 
HETATM  162  O   UNL     1      -6.944  16.243   4.591  1.00  0.00    -0.297 OA
BRANCH 161 163
HETATM  163  C   UNL     1      -5.981  15.404   2.606  1.00  0.00     0.109 C 
BRANCH 163 164
HETATM  164  C   UNL     1      -4.824  16.265   3.059  1.00  0.00     0.279 C 
BRANCH 164 165
HETATM  165  N   UNL     1      -4.520  17.418   2.199  1.00  0.00     0.080 N 
HETATM  166  C   UNL     1      -5.158  17.281   0.890  1.00  0.00     0.309 C 
HETATM  167  C   UNL     1      -3.069  17.516   2.011  1.00  0.00     0.309 C 
ENDBRANCH 164 165
ENDBRANCH 163 164
ENDBRANCH 161 163
ENDBRANCH 118 161
ENDBRANCH 117 118
ENDBRANCH 116 117
ENDBRANCH  97 116
BRANCH  98 168
HETATM  168  O   UNL     1      -8.572  15.669   7.024  1.00  0.00    -0.390 OA
HETATM  169  H   UNL     1      -8.796  15.635   6.072  1.00  0.00     0.210 HD
ENDBRANCH  98 168
ENDBRANCH  92  93
ENDBRANCH   5  92
TORSDOF 88
ENDMDL
