MODEL 1
REMARK VINA RESULT:      -8.8      0.000      0.000
REMARK WARNING: 32 MAX_TORS EXCEEDED!!!
REMARK  40 active torsions:
REMARK  status: ('A' for Active; 'I' for Inactive)
REMARK    1  A    between atoms: C_1  and  O_44 
REMARK    2  A    between atoms: C_2  and  C_6 
REMARK    3  A    between atoms: C_3  and  O_10 
REMARK    4  A    between atoms: C_4  and  N_12 
REMARK    5  A    between atoms: C_5  and  O_14 
REMARK    6  A    between atoms: C_6  and  O_7 
REMARK    7  A    between atoms: O_14  and  C_27 
REMARK    8  A    between atoms: O_16  and  C_21 
REMARK    9  A    between atoms: C_18  and  C_33 
REMARK   10  A    between atoms: O_20  and  C_33 
REMARK   11  A    between atoms: O_22  and  C_30 
REMARK   12  A    between atoms: O_22  and  C_70 
REMARK   13  A    between atoms: O_23  and  C_24 
REMARK   14  A    between atoms: C_24  and  C_28 
REMARK       I    between atoms: N_29  and  C_32 
REMARK   15  A    between atoms: N_29  and  C_35 
REMARK   16  A    between atoms: C_31  and  C_32 
REMARK   17  A    between atoms: O_38  and  C_43 
REMARK   18  A    between atoms: C_40  and  C_55 
REMARK   19  A    between atoms: O_42  and  C_55 
REMARK   20  A    between atoms: O_44  and  C_52 
REMARK   21  A    between atoms: O_45  and  C_46 
REMARK   22  A    between atoms: C_46  and  C_50 
REMARK   23  A    between atoms: C_49  and  O_87 
REMARK       I    between atoms: N_51  and  C_54 
REMARK   24  A    between atoms: N_51  and  C_57 
REMARK   25  A    between atoms: C_53  and  C_54 
REMARK   26  A    between atoms: O_60  and  C_65 
REMARK   27  A    between atoms: C_62  and  C_76 
REMARK   28  A    between atoms: O_64  and  C_76 
REMARK   29  A    between atoms: O_66  and  C_67 
REMARK   30  A    between atoms: C_67  and  C_71 
REMARK       I    between atoms: N_72  and  C_75 
REMARK   31  A    between atoms: N_72  and  C_78 
REMARK   32  A    between atoms: C_74  and  C_75 
REMARK   33  A    between atoms: O_81  and  C_86 
REMARK   34  A    between atoms: C_83  and  C_98 
REMARK   35  A    between atoms: O_85  and  C_98 
REMARK   36  A    between atoms: O_87  and  C_95 
REMARK   37  A    between atoms: O_88  and  C_89 
REMARK   38  A    between atoms: C_89  and  C_93 
REMARK       I    between atoms: N_94  and  C_97 
REMARK   39  A    between atoms: N_94  and  C_100 
REMARK   40  A    between atoms: C_96  and  C_97 
ROOT
HETATM    1  C   UNL     1       1.871   6.685   9.125  1.00  0.00     0.186 C 
HETATM    2  C   UNL     1       0.687   5.747   9.462  1.00  0.00     0.179 C 
HETATM    3  C   UNL     1       3.191   6.087   9.657  1.00  0.00     0.187 C 
HETATM    4  C   UNL     1       3.011   5.752  11.155  1.00  0.00     0.303 C 
HETATM    5  C   UNL     1       1.860   4.700  11.332  1.00  0.00     0.296 C 
HETATM    6  O   UNL     1       1.096   4.532  10.132  1.00  0.00    -0.349 OA
ENDROOT
BRANCH   1   7
HETATM    7  O   UNL     1       1.959   6.877   7.703  1.00  0.00    -0.348 OA
BRANCH   7   8
HETATM    8  C   UNL     1       0.963   6.205   6.921  1.00  0.00     0.286 C 
HETATM    9  O   UNL     1       1.632   5.655   5.779  1.00  0.00    -0.349 OA
HETATM   10  C   UNL     1       0.792   4.909   4.878  1.00  0.00     0.180 C 
HETATM   11  C   UNL     1      -0.470   5.681   4.431  1.00  0.00     0.186 C 
HETATM   12  C   UNL     1      -0.438   7.119   4.973  1.00  0.00     0.177 C 
HETATM   13  C   UNL     1      -0.182   7.171   6.487  1.00  0.00     0.171 C 
BRANCH  10  14
HETATM   14  C   UNL     1       0.442   3.538   5.477  1.00  0.00     0.198 C 
BRANCH  14  15
HETATM   15  O   UNL     1      -0.751   3.015   4.902  1.00  0.00    -0.398 OA
HETATM   16  H   UNL     1      -1.181   3.731   4.394  1.00  0.00     0.209 HD
ENDBRANCH  14  15
ENDBRANCH  10  14
BRANCH  11  17
HETATM   17  O   UNL     1      -0.465   5.742   2.996  1.00  0.00    -0.348 OA
BRANCH  17  18
HETATM   18  C   UNL     1      -1.516   6.484   2.371  1.00  0.00     0.286 C 
HETATM   19  O   UNL     1      -2.521   5.543   2.006  1.00  0.00    -0.352 OA
HETATM   20  C   UNL     1      -3.699   6.116   1.411  1.00  0.00     0.150 C 
HETATM   21  C   UNL     1      -3.431   7.384   0.594  1.00  0.00     0.068 C 
HETATM   22  C   UNL     1      -2.032   7.361   0.005  1.00  0.00     0.148 C 
HETATM   23  C   UNL     1      -0.984   7.274   1.136  1.00  0.00     0.168 C 
BRANCH  20  24
HETATM   24  C   UNL     1      -4.742   6.362   2.509  1.00  0.00     0.196 C 
BRANCH  24  25
HETATM   25  O   UNL     1      -5.867   5.508   2.320  1.00  0.00    -0.398 OA
HETATM   26  H   UNL     1      -6.333   5.473   3.178  1.00  0.00     0.209 HD
ENDBRANCH  24  25
ENDBRANCH  20  24
BRANCH  22  27
HETATM   27  O   UNL     1      -1.937   6.249  -0.890  1.00  0.00    -0.393 OA
HETATM   28  H   UNL     1      -2.766   5.746  -0.781  1.00  0.00     0.210 HD
ENDBRANCH  22  27
BRANCH  23  29
HETATM   29  N   UNL     1       0.308   6.780   0.640  1.00  0.00    -0.346 N 
HETATM   30  C   UNL     1       1.474   7.297   1.147  1.00  0.00     0.241 C 
HETATM   31  O   UNL     1       1.525   8.334   1.795  1.00  0.00    -0.269 OA
HETATM   32  H   UNL     1       0.298   5.860   0.204  1.00  0.00     0.163 HD
BRANCH  30  33
HETATM   33  C   UNL     1       2.642   6.414   0.952  1.00  0.00     0.080 C 
HETATM   34  C   UNL     1       3.853   6.890   1.271  1.00  0.00     0.086 C 
BRANCH  34  35
HETATM   35  C   UNL     1       5.009   5.994   1.239  1.00  0.00     0.165 C 
HETATM   36  O   UNL     1       5.046   4.832   1.591  1.00  0.00    -0.647 OA
BRANCH  35  37
HETATM   37  O   UNL     1       6.088   6.648   0.784  1.00  0.00    -0.773 OA
HETATM   38  H   UNL     1       6.300   7.291   1.492  1.00  0.00     0.167 HD
ENDBRANCH  35  37
ENDBRANCH  34  35
ENDBRANCH  30  33
ENDBRANCH  23  29
ENDBRANCH  17  18
ENDBRANCH  11  17
BRANCH  12  39
HETATM   39  O   UNL     1       0.530   7.919   4.266  1.00  0.00    -0.391 OA
HETATM   40  H   UNL     1       0.258   7.949   3.327  1.00  0.00     0.210 HD
ENDBRANCH  12  39
BRANCH  13  41
HETATM   41  N   UNL     1       0.021   8.561   6.894  1.00  0.00    -0.346 N 
HETATM   42  C   UNL     1      -0.734   9.154   7.866  1.00  0.00     0.241 C 
HETATM   43  O   UNL     1      -1.713   8.626   8.379  1.00  0.00    -0.269 OA
HETATM   44  H   UNL     1       0.875   9.004   6.576  1.00  0.00     0.163 HD
BRANCH  42  45
HETATM   45  C   UNL     1      -0.240  10.493   8.246  1.00  0.00     0.080 C 
HETATM   46  C   UNL     1      -1.033  11.309   8.950  1.00  0.00     0.086 C 
BRANCH  46  47
HETATM   47  C   UNL     1      -0.519  12.614   9.361  1.00  0.00     0.165 C 
HETATM   48  O   UNL     1      -1.087  13.687   9.292  1.00  0.00    -0.647 OA
BRANCH  47  49
HETATM   49  O   UNL     1       0.719  12.492   9.865  1.00  0.00    -0.773 OA
HETATM   50  H   UNL     1       1.087  11.713   9.401  1.00  0.00     0.167 HD
ENDBRANCH  47  49
ENDBRANCH  46  47
ENDBRANCH  42  45
ENDBRANCH  13  41
ENDBRANCH   7   8
ENDBRANCH   1   7
BRANCH   2  51
HETATM   51  C   UNL     1      -0.386   6.468  10.293  1.00  0.00     0.198 C 
BRANCH  51  52
HETATM   52  O   UNL     1       0.087   7.732  10.746  1.00  0.00    -0.398 OA
HETATM   53  H   UNL     1       1.013   7.831  10.452  1.00  0.00     0.209 HD
ENDBRANCH  51  52
ENDBRANCH   2  51
BRANCH   3  54
HETATM   54  O   UNL     1       3.598   4.926   8.917  1.00  0.00    -0.391 OA
HETATM   55  H   UNL     1       3.704   5.189   7.982  1.00  0.00     0.210 HD
ENDBRANCH   3  54
BRANCH   4  56
HETATM   56  N   UNL     1       4.308   5.400  11.761  1.00  0.00     0.090 N 
HETATM   57  H   UNL     1       4.457   5.887  12.637  1.00  0.00     0.313 HD
HETATM   58  H   UNL     1       4.295   4.396  11.967  1.00  0.00     0.313 HD
ENDBRANCH   4  56
BRANCH   5  59
HETATM   59  O   UNL     1       2.396   3.405  11.668  1.00  0.00    -0.348 OA
BRANCH  59  60
HETATM   60  C   UNL     1       1.847   2.814  12.861  1.00  0.00     0.186 C 
HETATM   61  C   UNL     1       1.253   3.873  13.827  1.00  0.00     0.179 C 
HETATM   62  O   UNL     1      -0.109   3.629  14.236  1.00  0.00    -0.349 OA
HETATM   63  C   UNL     1      -0.453   2.299  14.640  1.00  0.00     0.281 C 
HETATM   64  C   UNL     1       0.170   1.204  13.726  1.00  0.00     0.149 C 
HETATM   65  C   UNL     1       0.770   1.797  12.438  1.00  0.00     0.172 C 
BRANCH  61  66
HETATM   66  C   UNL     1       2.115   4.031  15.089  1.00  0.00     0.198 C 
BRANCH  66  67
HETATM   67  O   UNL     1       2.857   5.244  15.045  1.00  0.00    -0.398 OA
HETATM   68  H   UNL     1       3.173   5.368  14.129  1.00  0.00     0.209 HD
ENDBRANCH  66  67
ENDBRANCH  61  66
BRANCH  63  69
HETATM   69  O   UNL     1      -1.875   2.203  14.696  1.00  0.00    -0.349 OA
BRANCH  69  70
HETATM   70  C   UNL     1      -2.458   2.294  16.003  1.00  0.00     0.186 C 
HETATM   71  C   UNL     1      -2.472   3.749  16.535  1.00  0.00     0.176 C 
HETATM   72  O   UNL     1      -3.674   4.048  17.297  1.00  0.00    -0.379 OA
HETATM   73  C   UNL     1      -4.087   2.981  18.160  1.00  0.00     0.196 C 
HETATM   74  C   UNL     1      -4.517   1.741  17.354  1.00  0.00     0.139 C 
HETATM   75  C   UNL     1      -3.917   1.780  15.937  1.00  0.00     0.174 C 
BRANCH  71  76
HETATM   76  C   UNL     1      -1.257   4.097  17.406  1.00  0.00     0.198 C 
BRANCH  76  77
HETATM   77  O   UNL     1      -0.565   5.215  16.852  1.00  0.00    -0.398 OA
HETATM   78  H   UNL     1      -0.877   5.304  15.929  1.00  0.00     0.209 HD
ENDBRANCH  76  77
ENDBRANCH  71  76
BRANCH  74  79
HETATM   79  N   UNL     1      -5.975   1.630  17.299  1.00  0.00    -0.348 N 
HETATM   80  C   UNL     1      -6.620   0.424  17.317  1.00  0.00     0.241 C 
HETATM   81  O   UNL     1      -6.052  -0.660  17.359  1.00  0.00    -0.269 OA
HETATM   82  H   UNL     1      -6.487   2.479  17.087  1.00  0.00     0.163 HD
BRANCH  80  83
HETATM   83  C   UNL     1      -8.094   0.551  17.320  1.00  0.00     0.080 C 
HETATM   84  C   UNL     1      -8.786   0.080  18.365  1.00  0.00     0.086 C 
BRANCH  84  85
HETATM   85  C   UNL     1     -10.231   0.302  18.421  1.00  0.00     0.165 C 
HETATM   86  O   UNL     1     -11.050  -0.344  19.047  1.00  0.00    -0.647 OA
BRANCH  85  87
HETATM   87  O   UNL     1     -10.574   1.342  17.646  1.00  0.00    -0.773 OA
HETATM   88  H   UNL     1     -11.543   1.251  17.533  1.00  0.00     0.167 HD
ENDBRANCH  85  87
ENDBRANCH  84  85
ENDBRANCH  80  83
ENDBRANCH  74  79
BRANCH  75  89
HETATM   89  O   UNL     1      -4.733   2.606  15.086  1.00  0.00    -0.391 OA
HETATM   90  H   UNL     1      -5.402   3.048  15.640  1.00  0.00     0.210 HD
ENDBRANCH  75  89
ENDBRANCH  69  70
ENDBRANCH  63  69
BRANCH  64  91
HETATM   91  N   UNL     1      -0.550  -0.072  13.568  1.00  0.00    -0.247 NA
HETATM   92  C   UNL     1      -0.566  -1.021  14.555  1.00  0.00     0.221 C 
HETATM   93  O   UNL     1      -1.606  -1.206  15.182  1.00  0.00    -0.275 OA
HETATM   94  H   UNL     1      -1.532   0.127  13.415  1.00  0.00     0.131 HD
BRANCH  92  95
HETATM   95  C   UNL     1       0.557  -1.968  14.585  1.00  0.00     0.074 C 
HETATM   96  C   UNL     1       0.932  -2.360  15.812  1.00  0.00     0.086 C 
BRANCH  96  97
HETATM   97  C   UNL     1       1.964  -3.374  16.018  1.00  0.00     0.165 C 
HETATM   98  O   UNL     1       1.820  -4.539  16.335  1.00  0.00    -0.647 OA
BRANCH  97  99
HETATM   99  O   UNL     1       3.176  -2.828  15.825  1.00  0.00    -0.773 OA
HETATM  100  H   UNL     1       3.615  -2.912  16.696  1.00  0.00     0.167 HD
ENDBRANCH  97  99
ENDBRANCH  96  97
ENDBRANCH  92  95
ENDBRANCH  64  91
BRANCH  65 101
HETATM  101  O   UNL     1      -0.226   2.403  11.618  1.00  0.00    -0.391 OA
HETATM  102  H   UNL     1       0.221   3.091  11.087  1.00  0.00     0.210 HD
ENDBRANCH  65 101
ENDBRANCH  59  60
ENDBRANCH   5  59
TORSDOF 40
ENDMDL
MODEL 2
REMARK VINA RESULT:      -8.6      4.356     13.466
REMARK WARNING: 32 MAX_TORS EXCEEDED!!!
REMARK  40 active torsions:
REMARK  status: ('A' for Active; 'I' for Inactive)
REMARK    1  A    between atoms: C_1  and  O_44 
REMARK    2  A    between atoms: C_2  and  C_6 
REMARK    3  A    between atoms: C_3  and  O_10 
REMARK    4  A    between atoms: C_4  and  N_12 
REMARK    5  A    between atoms: C_5  and  O_14 
REMARK    6  A    between atoms: C_6  and  O_7 
REMARK    7  A    between atoms: O_14  and  C_27 
REMARK    8  A    between atoms: O_16  and  C_21 
REMARK    9  A    between atoms: C_18  and  C_33 
REMARK   10  A    between atoms: O_20  and  C_33 
REMARK   11  A    between atoms: O_22  and  C_30 
REMARK   12  A    between atoms: O_22  and  C_70 
REMARK   13  A    between atoms: O_23  and  C_24 
REMARK   14  A    between atoms: C_24  and  C_28 
REMARK       I    between atoms: N_29  and  C_32 
REMARK   15  A    between atoms: N_29  and  C_35 
REMARK   16  A    between atoms: C_31  and  C_32 
REMARK   17  A    between atoms: O_38  and  C_43 
REMARK   18  A    between atoms: C_40  and  C_55 
REMARK   19  A    between atoms: O_42  and  C_55 
REMARK   20  A    between atoms: O_44  and  C_52 
REMARK   21  A    between atoms: O_45  and  C_46 
REMARK   22  A    between atoms: C_46  and  C_50 
REMARK   23  A    between atoms: C_49  and  O_87 
REMARK       I    between atoms: N_51  and  C_54 
REMARK   24  A    between atoms: N_51  and  C_57 
REMARK   25  A    between atoms: C_53  and  C_54 
REMARK   26  A    between atoms: O_60  and  C_65 
REMARK   27  A    between atoms: C_62  and  C_76 
REMARK   28  A    between atoms: O_64  and  C_76 
REMARK   29  A    between atoms: O_66  and  C_67 
REMARK   30  A    between atoms: C_67  and  C_71 
REMARK       I    between atoms: N_72  and  C_75 
REMARK   31  A    between atoms: N_72  and  C_78 
REMARK   32  A    between atoms: C_74  and  C_75 
REMARK   33  A    between atoms: O_81  and  C_86 
REMARK   34  A    between atoms: C_83  and  C_98 
REMARK   35  A    between atoms: O_85  and  C_98 
REMARK   36  A    between atoms: O_87  and  C_95 
REMARK   37  A    between atoms: O_88  and  C_89 
REMARK   38  A    between atoms: C_89  and  C_93 
REMARK       I    between atoms: N_94  and  C_97 
REMARK   39  A    between atoms: N_94  and  C_100 
REMARK   40  A    between atoms: C_96  and  C_97 
ROOT
HETATM    1  C   UNL     1      -0.124  -1.074  14.759  1.00  0.00     0.186 C 
HETATM    2  C   UNL     1      -0.985   0.106  14.245  1.00  0.00     0.179 C 
HETATM    3  C   UNL     1       1.211  -0.550  15.327  1.00  0.00     0.187 C 
HETATM    4  C   UNL     1       1.880   0.350  14.263  1.00  0.00     0.303 C 
HETATM    5  C   UNL     1       0.947   1.568  13.932  1.00  0.00     0.296 C 
HETATM    6  O   UNL     1      -0.372   1.396  14.466  1.00  0.00    -0.349 OA
ENDROOT
BRANCH   1   7
HETATM    7  O   UNL     1      -0.838  -1.799  15.774  1.00  0.00    -0.348 OA
BRANCH   7   8
HETATM    8  C   UNL     1      -1.244  -3.128  15.422  1.00  0.00     0.286 C 
HETATM    9  O   UNL     1      -0.655  -3.421  14.150  1.00  0.00    -0.349 OA
HETATM   10  C   UNL     1      -0.929  -4.739  13.636  1.00  0.00     0.180 C 
HETATM   11  C   UNL     1      -2.433  -5.091  13.615  1.00  0.00     0.186 C 
HETATM   12  C   UNL     1      -3.273  -3.874  14.037  1.00  0.00     0.177 C 
HETATM   13  C   UNL     1      -2.797  -3.262  15.363  1.00  0.00     0.171 C 
BRANCH  10  14
HETATM   14  C   UNL     1      -0.104  -5.793  14.391  1.00  0.00     0.198 C 
BRANCH  14  15
HETATM   15  O   UNL     1       0.593  -6.644  13.486  1.00  0.00    -0.398 OA
HETATM   16  H   UNL     1      -0.054  -7.259  13.090  1.00  0.00     0.209 HD
ENDBRANCH  14  15
ENDBRANCH  10  14
BRANCH  11  17
HETATM   17  O   UNL     1      -2.787  -5.435  12.267  1.00  0.00    -0.348 OA
BRANCH  17  18
HETATM   18  C   UNL     1      -1.810  -6.138  11.494  1.00  0.00     0.286 C 
HETATM   19  O   UNL     1      -2.129  -5.912  10.126  1.00  0.00    -0.352 OA
HETATM   20  C   UNL     1      -1.210  -6.497   9.185  1.00  0.00     0.150 C 
HETATM   21  C   UNL     1      -0.567  -7.801   9.671  1.00  0.00     0.068 C 
HETATM   22  C   UNL     1      -1.494  -8.539  10.620  1.00  0.00     0.148 C 
HETATM   23  C   UNL     1      -1.805  -7.657  11.848  1.00  0.00     0.168 C 
BRANCH  20  24
HETATM   24  C   UNL     1      -0.153  -5.452   8.806  1.00  0.00     0.196 C 
BRANCH  24  25
HETATM   25  O   UNL     1       1.099  -6.086   8.559  1.00  0.00    -0.398 OA
HETATM   26  H   UNL     1       0.893  -6.981   8.225  1.00  0.00     0.209 HD
ENDBRANCH  24  25
ENDBRANCH  20  24
BRANCH  22  27
HETATM   27  O   UNL     1      -2.683  -8.890   9.907  1.00  0.00    -0.393 OA
HETATM   28  H   UNL     1      -2.385  -9.263   9.055  1.00  0.00     0.210 HD
ENDBRANCH  22  27
BRANCH  23  29
HETATM   29  N   UNL     1      -3.025  -8.099  12.537  1.00  0.00    -0.346 N 
HETATM   30  C   UNL     1      -2.929  -8.910  13.640  1.00  0.00     0.241 C 
HETATM   31  O   UNL     1      -1.910  -9.517  13.941  1.00  0.00    -0.269 OA
HETATM   32  H   UNL     1      -3.855  -7.527  12.388  1.00  0.00     0.163 HD
BRANCH  30  33
HETATM   33  C   UNL     1      -4.127  -8.875  14.502  1.00  0.00     0.080 C 
HETATM   34  C   UNL     1      -4.860  -9.991  14.609  1.00  0.00     0.086 C 
BRANCH  34  35
HETATM   35  C   UNL     1      -5.960 -10.040  15.572  1.00  0.00     0.165 C 
HETATM   36  O   UNL     1      -6.515 -11.030  16.004  1.00  0.00    -0.647 OA
BRANCH  35  37
HETATM   37  O   UNL     1      -6.326  -8.797  15.918  1.00  0.00    -0.773 OA
HETATM   38  H   UNL     1      -6.821  -8.912  16.756  1.00  0.00     0.167 HD
ENDBRANCH  35  37
ENDBRANCH  34  35
ENDBRANCH  30  33
ENDBRANCH  23  29
ENDBRANCH  17  18
ENDBRANCH  11  17
BRANCH  12  39
HETATM   39  O   UNL     1      -3.302  -2.877  12.997  1.00  0.00    -0.391 OA
HETATM   40  H   UNL     1      -3.562  -2.029  13.409  1.00  0.00     0.210 HD
ENDBRANCH  12  39
BRANCH  13  41
HETATM   41  N   UNL     1      -3.516  -2.011  15.602  1.00  0.00    -0.346 N 
HETATM   42  C   UNL     1      -4.603  -1.939  16.426  1.00  0.00     0.241 C 
HETATM   43  O   UNL     1      -5.140  -2.921  16.924  1.00  0.00    -0.269 OA
HETATM   44  H   UNL     1      -3.055  -1.161  15.297  1.00  0.00     0.163 HD
BRANCH  42  45
HETATM   45  C   UNL     1      -5.055  -0.555  16.667  1.00  0.00     0.080 C 
HETATM   46  C   UNL     1      -4.312   0.465  16.220  1.00  0.00     0.086 C 
BRANCH  46  47
HETATM   47  C   UNL     1      -4.791   1.831  16.423  1.00  0.00     0.165 C 
HETATM   48  O   UNL     1      -4.585   2.799  15.715  1.00  0.00    -0.647 OA
BRANCH  47  49
HETATM   49  O   UNL     1      -5.538   1.905  17.534  1.00  0.00    -0.773 OA
HETATM   50  H   UNL     1      -4.898   2.145  18.235  1.00  0.00     0.167 HD
ENDBRANCH  47  49
ENDBRANCH  46  47
ENDBRANCH  42  45
ENDBRANCH  13  41
ENDBRANCH   7   8
ENDBRANCH   1   7
BRANCH   2  51
HETATM   51  C   UNL     1      -1.340  -0.059  12.759  1.00  0.00     0.198 C 
BRANCH  51  52
HETATM   52  O   UNL     1      -0.846  -1.295  12.253  1.00  0.00    -0.398 OA
HETATM   53  H   UNL     1      -1.568  -1.727  11.756  1.00  0.00     0.209 HD
ENDBRANCH  51  52
ENDBRANCH   2  51
BRANCH   3  54
HETATM   54  O   UNL     1       1.034   0.162  16.562  1.00  0.00    -0.391 OA
HETATM   55  H   UNL     1       0.475  -0.388  17.146  1.00  0.00     0.210 HD
ENDBRANCH   3  54
BRANCH   4  56
HETATM   56  N   UNL     1       3.258   0.682  14.666  1.00  0.00     0.090 N 
HETATM   57  H   UNL     1       3.744   1.205  13.947  1.00  0.00     0.313 HD
HETATM   58  H   UNL     1       3.205   1.281  15.497  1.00  0.00     0.313 HD
ENDBRANCH   4  56
BRANCH   5  59
HETATM   59  O   UNL     1       1.470   2.784  14.499  1.00  0.00    -0.348 OA
BRANCH  59  60
HETATM   60  C   UNL     1       1.569   3.888  13.579  1.00  0.00     0.186 C 
HETATM   61  C   UNL     1       1.481   3.433  12.098  1.00  0.00     0.179 C 
HETATM   62  O   UNL     1       0.484   4.116  11.309  1.00  0.00    -0.349 OA
HETATM   63  C   UNL     1       0.406   5.541  11.426  1.00  0.00     0.281 C 
HETATM   64  C   UNL     1       0.544   6.040  12.894  1.00  0.00     0.149 C 
HETATM   65  C   UNL     1       0.445   4.888  13.910  1.00  0.00     0.172 C 
BRANCH  61  66
HETATM   66  C   UNL     1       2.836   3.569  11.386  1.00  0.00     0.198 C 
BRANCH  66  67
HETATM   67  O   UNL     1       3.908   3.469  12.315  1.00  0.00    -0.398 OA
HETATM   68  H   UNL     1       4.705   3.186  11.824  1.00  0.00     0.209 HD
ENDBRANCH  66  67
ENDBRANCH  61  66
BRANCH  63  69
HETATM   69  O   UNL     1      -0.815   5.970  10.827  1.00  0.00    -0.349 OA
BRANCH  69  70
HETATM   70  C   UNL     1      -0.686   6.859   9.708  1.00  0.00     0.186 C 
HETATM   71  C   UNL     1       0.670   7.607   9.712  1.00  0.00     0.176 C 
HETATM   72  O   UNL     1       1.208   7.782   8.373  1.00  0.00    -0.379 OA
HETATM   73  C   UNL     1       0.217   8.129   7.396  1.00  0.00     0.196 C 
HETATM   74  C   UNL     1      -0.793   6.985   7.190  1.00  0.00     0.139 C 
HETATM   75  C   UNL     1      -0.793   6.035   8.402  1.00  0.00     0.174 C 
BRANCH  71  76
HETATM   76  C   UNL     1       0.612   8.984  10.385  1.00  0.00     0.198 C 
BRANCH  76  77
HETATM   77  O   UNL     1      -0.670   9.180  10.983  1.00  0.00    -0.398 OA
HETATM   78  H   UNL     1      -0.702   8.596  11.767  1.00  0.00     0.209 HD
ENDBRANCH  76  77
ENDBRANCH  71  76
BRANCH  74  79
HETATM   79  N   UNL     1      -0.511   6.252   5.955  1.00  0.00    -0.348 N 
HETATM   80  C   UNL     1      -1.497   5.887   5.078  1.00  0.00     0.241 C 
HETATM   81  O   UNL     1      -2.688   6.116   5.248  1.00  0.00    -0.269 OA
HETATM   82  H   UNL     1       0.428   5.885   5.848  1.00  0.00     0.163 HD
BRANCH  80  83
HETATM   83  C   UNL     1      -0.979   5.216   3.867  1.00  0.00     0.080 C 
HETATM   84  C   UNL     1      -1.841   4.610   3.039  1.00  0.00     0.086 C 
BRANCH  84  85
HETATM   85  C   UNL     1      -1.343   4.040   1.786  1.00  0.00     0.165 C 
HETATM   86  O   UNL     1      -1.126   4.631   0.746  1.00  0.00    -0.647 OA
BRANCH  85  87
HETATM   87  O   UNL     1      -1.163   2.717   1.914  1.00  0.00    -0.773 OA
HETATM   88  H   UNL     1      -0.340   2.636   2.440  1.00  0.00     0.167 HD
ENDBRANCH  85  87
ENDBRANCH  84  85
ENDBRANCH  80  83
ENDBRANCH  74  79
BRANCH  75  89
HETATM   89  O   UNL     1       0.289   5.092   8.280  1.00  0.00    -0.391 OA
HETATM   90  H   UNL     1       1.124   5.592   8.217  1.00  0.00     0.210 HD
ENDBRANCH  75  89
ENDBRANCH  69  70
ENDBRANCH  63  69
BRANCH  64  91
HETATM   91  N   UNL     1      -0.134   7.292  13.276  1.00  0.00    -0.247 NA
HETATM   92  C   UNL     1      -0.003   7.831  14.528  1.00  0.00     0.221 C 
HETATM   93  O   UNL     1       0.660   8.857  14.665  1.00  0.00    -0.275 OA
HETATM   94  H   UNL     1       0.186   8.034  12.664  1.00  0.00     0.131 HD
BRANCH  92  95
HETATM   95  C   UNL     1      -0.918   7.335  15.565  1.00  0.00     0.074 C 
HETATM   96  C   UNL     1      -2.189   7.174  15.165  1.00  0.00     0.086 C 
BRANCH  96  97
HETATM   97  C   UNL     1      -3.207   6.595  16.040  1.00  0.00     0.165 C 
HETATM   98  O   UNL     1      -3.874   7.154  16.889  1.00  0.00    -0.647 OA
BRANCH  97  99
HETATM   99  O   UNL     1      -3.313   5.279  15.796  1.00  0.00    -0.773 OA
HETATM  100  H   UNL     1      -4.275   5.105  15.853  1.00  0.00     0.167 HD
ENDBRANCH  97  99
ENDBRANCH  96  97
ENDBRANCH  92  95
ENDBRANCH  64  91
BRANCH  65 101
HETATM  101  O   UNL     1      -0.835   4.262  13.880  1.00  0.00    -0.391 OA
HETATM  102  H   UNL     1      -0.722   3.363  14.246  1.00  0.00     0.210 HD
ENDBRANCH  65 101
ENDBRANCH  59  60
ENDBRANCH   5  59
TORSDOF 40
ENDMDL
MODEL 3
REMARK VINA RESULT:      -8.5      1.943      2.607
REMARK WARNING: 32 MAX_TORS EXCEEDED!!!
REMARK  40 active torsions:
REMARK  status: ('A' for Active; 'I' for Inactive)
REMARK    1  A    between atoms: C_1  and  O_44 
REMARK    2  A    between atoms: C_2  and  C_6 
REMARK    3  A    between atoms: C_3  and  O_10 
REMARK    4  A    between atoms: C_4  and  N_12 
REMARK    5  A    between atoms: C_5  and  O_14 
REMARK    6  A    between atoms: C_6  and  O_7 
REMARK    7  A    between atoms: O_14  and  C_27 
REMARK    8  A    between atoms: O_16  and  C_21 
REMARK    9  A    between atoms: C_18  and  C_33 
REMARK   10  A    between atoms: O_20  and  C_33 
REMARK   11  A    between atoms: O_22  and  C_30 
REMARK   12  A    between atoms: O_22  and  C_70 
REMARK   13  A    between atoms: O_23  and  C_24 
REMARK   14  A    between atoms: C_24  and  C_28 
REMARK       I    between atoms: N_29  and  C_32 
REMARK   15  A    between atoms: N_29  and  C_35 
REMARK   16  A    between atoms: C_31  and  C_32 
REMARK   17  A    between atoms: O_38  and  C_43 
REMARK   18  A    between atoms: C_40  and  C_55 
REMARK   19  A    between atoms: O_42  and  C_55 
REMARK   20  A    between atoms: O_44  and  C_52 
REMARK   21  A    between atoms: O_45  and  C_46 
REMARK   22  A    between atoms: C_46  and  C_50 
REMARK   23  A    between atoms: C_49  and  O_87 
REMARK       I    between atoms: N_51  and  C_54 
REMARK   24  A    between atoms: N_51  and  C_57 
REMARK   25  A    between atoms: C_53  and  C_54 
REMARK   26  A    between atoms: O_60  and  C_65 
REMARK   27  A    between atoms: C_62  and  C_76 
REMARK   28  A    between atoms: O_64  and  C_76 
REMARK   29  A    between atoms: O_66  and  C_67 
REMARK   30  A    between atoms: C_67  and  C_71 
REMARK       I    between atoms: N_72  and  C_75 
REMARK   31  A    between atoms: N_72  and  C_78 
REMARK   32  A    between atoms: C_74  and  C_75 
REMARK   33  A    between atoms: O_81  and  C_86 
REMARK   34  A    between atoms: C_83  and  C_98 
REMARK   35  A    between atoms: O_85  and  C_98 
REMARK   36  A    between atoms: O_87  and  C_95 
REMARK   37  A    between atoms: O_88  and  C_89 
REMARK   38  A    between atoms: C_89  and  C_93 
REMARK       I    between atoms: N_94  and  C_97 
REMARK   39  A    between atoms: N_94  and  C_100 
REMARK   40  A    between atoms: C_96  and  C_97 
ROOT
HETATM    1  C   UNL     1       1.827   6.691   9.095  1.00  0.00     0.186 C 
HETATM    2  C   UNL     1       0.832   5.537   9.370  1.00  0.00     0.179 C 
HETATM    3  C   UNL     1       3.201   6.367   9.718  1.00  0.00     0.187 C 
HETATM    4  C   UNL     1       2.996   6.004  11.206  1.00  0.00     0.303 C 
HETATM    5  C   UNL     1       2.067   4.744  11.323  1.00  0.00     0.296 C 
HETATM    6  O   UNL     1       1.430   4.428  10.080  1.00  0.00    -0.349 OA
ENDROOT
BRANCH   1   7
HETATM    7  O   UNL     1       1.967   6.896   7.680  1.00  0.00    -0.348 OA
BRANCH   7   8
HETATM    8  C   UNL     1       0.986   6.251   6.857  1.00  0.00     0.286 C 
HETATM    9  O   UNL     1       1.678   5.729   5.715  1.00  0.00    -0.349 OA
HETATM   10  C   UNL     1       0.855   5.012   4.775  1.00  0.00     0.180 C 
HETATM   11  C   UNL     1      -0.393   5.802   4.321  1.00  0.00     0.186 C 
HETATM   12  C   UNL     1      -0.366   7.225   4.904  1.00  0.00     0.177 C 
HETATM   13  C   UNL     1      -0.144   7.234   6.424  1.00  0.00     0.171 C 
BRANCH  10  14
HETATM   14  C   UNL     1       0.485   3.627   5.329  1.00  0.00     0.198 C 
BRANCH  14  15
HETATM   15  O   UNL     1      -0.683   3.116   4.695  1.00  0.00    -0.398 OA
HETATM   16  H   UNL     1      -1.106   2.483   5.308  1.00  0.00     0.209 HD
ENDBRANCH  14  15
ENDBRANCH  10  14
BRANCH  11  17
HETATM   17  O   UNL     1      -0.355   5.903   2.889  1.00  0.00    -0.348 OA
BRANCH  17  18
HETATM   18  C   UNL     1      -1.462   6.546   2.251  1.00  0.00     0.286 C 
HETATM   19  O   UNL     1      -2.404   5.526   1.939  1.00  0.00    -0.352 OA
HETATM   20  C   UNL     1      -3.626   5.994   1.339  1.00  0.00     0.150 C 
HETATM   21  C   UNL     1      -3.454   7.243   0.468  1.00  0.00     0.068 C 
HETATM   22  C   UNL     1      -2.064   7.290  -0.140  1.00  0.00     0.148 C 
HETATM   23  C   UNL     1      -0.999   7.319   0.978  1.00  0.00     0.168 C 
BRANCH  20  24
HETATM   24  C   UNL     1      -4.670   6.213   2.441  1.00  0.00     0.196 C 
BRANCH  24  25
HETATM   25  O   UNL     1      -5.826   5.419   2.189  1.00  0.00    -0.398 OA
HETATM   26  H   UNL     1      -5.563   4.754   1.523  1.00  0.00     0.209 HD
ENDBRANCH  24  25
ENDBRANCH  20  24
BRANCH  22  27
HETATM   27  O   UNL     1      -1.905   6.152  -0.991  1.00  0.00    -0.393 OA
HETATM   28  H   UNL     1      -2.753   5.671  -0.958  1.00  0.00     0.210 HD
ENDBRANCH  22  27
BRANCH  23  29
HETATM   29  N   UNL     1       0.317   6.895   0.483  1.00  0.00    -0.346 N 
HETATM   30  C   UNL     1       1.456   7.436   1.025  1.00  0.00     0.241 C 
HETATM   31  O   UNL     1       1.458   8.450   1.712  1.00  0.00    -0.269 OA
HETATM   32  H   UNL     1       0.349   5.991   0.014  1.00  0.00     0.163 HD
BRANCH  30  33
HETATM   33  C   UNL     1       2.660   6.607   0.815  1.00  0.00     0.080 C 
HETATM   34  C   UNL     1       3.781   6.947   1.463  1.00  0.00     0.086 C 
BRANCH  34  35
HETATM   35  C   UNL     1       4.944   6.062   1.402  1.00  0.00     0.165 C 
HETATM   36  O   UNL     1       5.049   4.954   1.889  1.00  0.00    -0.647 OA
BRANCH  35  37
HETATM   37  O   UNL     1       5.945   6.658   0.738  1.00  0.00    -0.773 OA
HETATM   38  H   UNL     1       6.532   7.004   1.442  1.00  0.00     0.167 HD
ENDBRANCH  35  37
ENDBRANCH  34  35
ENDBRANCH  30  33
ENDBRANCH  23  29
ENDBRANCH  17  18
ENDBRANCH  11  17
BRANCH  12  39
HETATM   39  O   UNL     1       0.621   8.039   4.241  1.00  0.00    -0.391 OA
HETATM   40  H   UNL     1       0.559   8.941   4.615  1.00  0.00     0.210 HD
ENDBRANCH  12  39
BRANCH  13  41
HETATM   41  N   UNL     1       0.055   8.611   6.874  1.00  0.00    -0.346 N 
HETATM   42  C   UNL     1      -0.698   9.171   7.867  1.00  0.00     0.241 C 
HETATM   43  O   UNL     1      -1.674   8.624   8.366  1.00  0.00    -0.269 OA
HETATM   44  H   UNL     1       0.907   9.067   6.566  1.00  0.00     0.163 HD
BRANCH  42  45
HETATM   45  C   UNL     1      -0.207  10.499   8.286  1.00  0.00     0.080 C 
HETATM   46  C   UNL     1      -1.056  11.360   8.859  1.00  0.00     0.086 C 
BRANCH  46  47
HETATM   47  C   UNL     1      -0.550  12.655   9.313  1.00  0.00     0.165 C 
HETATM   48  O   UNL     1      -1.134  13.722   9.298  1.00  0.00    -0.647 OA
BRANCH  47  49
HETATM   49  O   UNL     1       0.698  12.529   9.790  1.00  0.00    -0.773 OA
HETATM   50  H   UNL     1       0.750  11.593  10.070  1.00  0.00     0.167 HD
ENDBRANCH  47  49
ENDBRANCH  46  47
ENDBRANCH  42  45
ENDBRANCH  13  41
ENDBRANCH   7   8
ENDBRANCH   1   7
BRANCH   2  51
HETATM   51  C   UNL     1      -0.413   6.031  10.122  1.00  0.00     0.198 C 
BRANCH  51  52
HETATM   52  O   UNL     1      -1.547   6.063   9.260  1.00  0.00    -0.398 OA
HETATM   53  H   UNL     1      -1.236   6.283   8.361  1.00  0.00     0.209 HD
ENDBRANCH  51  52
ENDBRANCH   2  51
BRANCH   3  54
HETATM   54  O   UNL     1       3.878   5.309   9.021  1.00  0.00    -0.391 OA
HETATM   55  H   UNL     1       3.202   4.779   8.553  1.00  0.00     0.210 HD
ENDBRANCH   3  54
BRANCH   4  56
HETATM   56  N   UNL     1       4.294   5.916  11.897  1.00  0.00     0.090 N 
HETATM   57  H   UNL     1       4.508   6.768  12.403  1.00  0.00     0.313 HD
HETATM   58  H   UNL     1       4.232   5.159  12.585  1.00  0.00     0.313 HD
ENDBRANCH   4  56
BRANCH   5  59
HETATM   59  O   UNL     1       2.825   3.582  11.710  1.00  0.00    -0.348 OA
BRANCH  59  60
HETATM   60  C   UNL     1       2.775   3.266  13.115  1.00  0.00     0.186 C 
HETATM   61  C   UNL     1       1.570   3.933  13.829  1.00  0.00     0.179 C 
HETATM   62  O   UNL     1       0.730   3.030  14.579  1.00  0.00    -0.349 OA
HETATM   63  C   UNL     1       1.375   2.070  15.423  1.00  0.00     0.281 C 
HETATM   64  C   UNL     1       2.623   1.417  14.761  1.00  0.00     0.149 C 
HETATM   65  C   UNL     1       2.713   1.733  13.257  1.00  0.00     0.172 C 
BRANCH  61  66
HETATM   66  C   UNL     1       2.025   5.061  14.768  1.00  0.00     0.198 C 
BRANCH  66  67
HETATM   67  O   UNL     1       3.437   5.229  14.708  1.00  0.00    -0.398 OA
HETATM   68  H   UNL     1       3.811   4.454  14.245  1.00  0.00     0.209 HD
ENDBRANCH  66  67
ENDBRANCH  61  66
BRANCH  63  69
HETATM   69  O   UNL     1       0.406   1.099  15.814  1.00  0.00    -0.349 OA
BRANCH  69  70
HETATM   70  C   UNL     1      -0.955   1.399  15.471  1.00  0.00     0.186 C 
HETATM   71  C   UNL     1      -1.703   0.159  14.921  1.00  0.00     0.176 C 
HETATM   72  O   UNL     1      -3.090   0.113  15.356  1.00  0.00    -0.379 OA
HETATM   73  C   UNL     1      -3.740   1.390  15.340  1.00  0.00     0.196 C 
HETATM   74  C   UNL     1      -3.113   2.353  16.365  1.00  0.00     0.139 C 
HETATM   75  C   UNL     1      -1.691   1.897  16.739  1.00  0.00     0.174 C 
BRANCH  71  76
HETATM   76  C   UNL     1      -1.681   0.056  13.390  1.00  0.00     0.198 C 
BRANCH  76  77
HETATM   77  O   UNL     1      -1.989  -1.278  12.988  1.00  0.00    -0.398 OA
HETATM   78  H   UNL     1      -1.134  -1.719  12.811  1.00  0.00     0.209 HD
ENDBRANCH  76  77
ENDBRANCH  71  76
BRANCH  74  79
HETATM   79  N   UNL     1      -3.953   2.468  17.559  1.00  0.00    -0.348 N 
HETATM   80  C   UNL     1      -4.252   3.674  18.131  1.00  0.00     0.241 C 
HETATM   81  O   UNL     1      -3.838   4.751  17.722  1.00  0.00    -0.269 OA
HETATM   82  H   UNL     1      -4.177   1.604  18.041  1.00  0.00     0.163 HD
BRANCH  80  83
HETATM   83  C   UNL     1      -5.168   3.558  19.286  1.00  0.00     0.080 C 
HETATM   84  C   UNL     1      -4.671   3.671  20.526  1.00  0.00     0.086 C 
BRANCH  84  85
HETATM   85  C   UNL     1      -5.590   3.666  21.664  1.00  0.00     0.165 C 
HETATM   86  O   UNL     1      -6.205   2.716  22.107  1.00  0.00    -0.647 OA
BRANCH  85  87
HETATM   87  O   UNL     1      -5.700   4.899  22.181  1.00  0.00    -0.773 OA
HETATM   88  H   UNL     1      -4.838   5.322  21.982  1.00  0.00     0.167 HD
ENDBRANCH  85  87
ENDBRANCH  84  85
ENDBRANCH  80  83
ENDBRANCH  74  79
BRANCH  75  89
HETATM   89  O   UNL     1      -1.757   0.874  17.750  1.00  0.00    -0.391 OA
HETATM   90  H   UNL     1      -2.454   0.241  17.497  1.00  0.00     0.210 HD
ENDBRANCH  75  89
ENDBRANCH  69  70
ENDBRANCH  63  69
BRANCH  64  91
HETATM   91  N   UNL     1       2.984   0.042  15.149  1.00  0.00    -0.247 NA
HETATM   92  C   UNL     1       2.868  -1.009  14.279  1.00  0.00     0.221 C 
HETATM   93  O   UNL     1       3.889  -1.514  13.820  1.00  0.00    -0.275 OA
HETATM   94  H   UNL     1       3.964   0.026  15.409  1.00  0.00     0.131 HD
BRANCH  92  95
HETATM   95  C   UNL     1       1.554  -1.665  14.201  1.00  0.00     0.074 C 
HETATM   96  C   UNL     1       1.218  -2.384  15.282  1.00  0.00     0.086 C 
BRANCH  96  97
HETATM   97  C   UNL     1      -0.092  -3.017  15.412  1.00  0.00     0.165 C 
HETATM   98  O   UNL     1      -0.747  -3.572  14.550  1.00  0.00    -0.647 OA
BRANCH  97  99
HETATM   99  O   UNL     1      -0.532  -2.890  16.674  1.00  0.00    -0.773 OA
HETATM  100  H   UNL     1      -0.811  -3.796  16.920  1.00  0.00     0.167 HD
ENDBRANCH  97  99
ENDBRANCH  96  97
ENDBRANCH  92  95
ENDBRANCH  64  91
BRANCH  65 101
HETATM  101  O   UNL     1       1.614   1.186  12.532  1.00  0.00    -0.391 OA
HETATM  102  H   UNL     1       0.943   0.918  13.190  1.00  0.00     0.210 HD
ENDBRANCH  65 101
ENDBRANCH  59  60
ENDBRANCH   5  59
TORSDOF 40
ENDMDL
MODEL 4
REMARK VINA RESULT:      -8.3      4.173     13.527
REMARK WARNING: 32 MAX_TORS EXCEEDED!!!
REMARK  40 active torsions:
REMARK  status: ('A' for Active; 'I' for Inactive)
REMARK    1  A    between atoms: C_1  and  O_44 
REMARK    2  A    between atoms: C_2  and  C_6 
REMARK    3  A    between atoms: C_3  and  O_10 
REMARK    4  A    between atoms: C_4  and  N_12 
REMARK    5  A    between atoms: C_5  and  O_14 
REMARK    6  A    between atoms: C_6  and  O_7 
REMARK    7  A    between atoms: O_14  and  C_27 
REMARK    8  A    between atoms: O_16  and  C_21 
REMARK    9  A    between atoms: C_18  and  C_33 
REMARK   10  A    between atoms: O_20  and  C_33 
REMARK   11  A    between atoms: O_22  and  C_30 
REMARK   12  A    between atoms: O_22  and  C_70 
REMARK   13  A    between atoms: O_23  and  C_24 
REMARK   14  A    between atoms: C_24  and  C_28 
REMARK       I    between atoms: N_29  and  C_32 
REMARK   15  A    between atoms: N_29  and  C_35 
REMARK   16  A    between atoms: C_31  and  C_32 
REMARK   17  A    between atoms: O_38  and  C_43 
REMARK   18  A    between atoms: C_40  and  C_55 
REMARK   19  A    between atoms: O_42  and  C_55 
REMARK   20  A    between atoms: O_44  and  C_52 
REMARK   21  A    between atoms: O_45  and  C_46 
REMARK   22  A    between atoms: C_46  and  C_50 
REMARK   23  A    between atoms: C_49  and  O_87 
REMARK       I    between atoms: N_51  and  C_54 
REMARK   24  A    between atoms: N_51  and  C_57 
REMARK   25  A    between atoms: C_53  and  C_54 
REMARK   26  A    between atoms: O_60  and  C_65 
REMARK   27  A    between atoms: C_62  and  C_76 
REMARK   28  A    between atoms: O_64  and  C_76 
REMARK   29  A    between atoms: O_66  and  C_67 
REMARK   30  A    between atoms: C_67  and  C_71 
REMARK       I    between atoms: N_72  and  C_75 
REMARK   31  A    between atoms: N_72  and  C_78 
REMARK   32  A    between atoms: C_74  and  C_75 
REMARK   33  A    between atoms: O_81  and  C_86 
REMARK   34  A    between atoms: C_83  and  C_98 
REMARK   35  A    between atoms: O_85  and  C_98 
REMARK   36  A    between atoms: O_87  and  C_95 
REMARK   37  A    between atoms: O_88  and  C_89 
REMARK   38  A    between atoms: C_89  and  C_93 
REMARK       I    between atoms: N_94  and  C_97 
REMARK   39  A    between atoms: N_94  and  C_100 
REMARK   40  A    between atoms: C_96  and  C_97 
ROOT
HETATM    1  C   UNL     1      -0.173  -0.634  14.557  1.00  0.00     0.186 C 
HETATM    2  C   UNL     1      -0.945   0.441  13.755  1.00  0.00     0.179 C 
HETATM    3  C   UNL     1       1.056  -0.004  15.245  1.00  0.00     0.187 C 
HETATM    4  C   UNL     1       1.881   0.754  14.180  1.00  0.00     0.303 C 
HETATM    5  C   UNL     1       1.009   1.891  13.539  1.00  0.00     0.296 C 
HETATM    6  O   UNL     1      -0.376   1.764  13.882  1.00  0.00    -0.349 OA
ENDROOT
BRANCH   1   7
HETATM    7  O   UNL     1      -1.035  -1.227  15.543  1.00  0.00    -0.348 OA
BRANCH   7   8
HETATM    8  C   UNL     1      -1.093  -2.659  15.542  1.00  0.00     0.286 C 
HETATM    9  O   UNL     1      -0.941  -3.080  14.181  1.00  0.00    -0.349 OA
HETATM   10  C   UNL     1      -0.943  -4.507  13.977  1.00  0.00     0.180 C 
HETATM   11  C   UNL     1      -2.156  -5.218  14.619  1.00  0.00     0.186 C 
HETATM   12  C   UNL     1      -3.130  -4.185  15.211  1.00  0.00     0.177 C 
HETATM   13  C   UNL     1      -2.431  -3.186  16.144  1.00  0.00     0.171 C 
BRANCH  10  14
HETATM   14  C   UNL     1       0.389  -5.119  14.437  1.00  0.00     0.198 C 
BRANCH  14  15
HETATM   15  O   UNL     1       0.347  -6.542  14.379  1.00  0.00    -0.398 OA
HETATM   16  H   UNL     1      -0.544  -6.829  14.658  1.00  0.00     0.209 HD
ENDBRANCH  14  15
ENDBRANCH  10  14
BRANCH  11  17
HETATM   17  O   UNL     1      -2.842  -5.940  13.584  1.00  0.00    -0.348 OA
BRANCH  17  18
HETATM   18  C   UNL     1      -3.096  -7.329  13.817  1.00  0.00     0.286 C 
HETATM   19  O   UNL     1      -2.564  -7.634  15.101  1.00  0.00    -0.352 OA
HETATM   20  C   UNL     1      -2.780  -8.987  15.541  1.00  0.00     0.150 C 
HETATM   21  C   UNL     1      -2.811 -10.014  14.404  1.00  0.00     0.068 C 
HETATM   22  C   UNL     1      -1.946  -9.560  13.242  1.00  0.00     0.148 C 
HETATM   23  C   UNL     1      -2.456  -8.208  12.699  1.00  0.00     0.168 C 
BRANCH  20  24
HETATM   24  C   UNL     1      -4.061  -9.038  16.384  1.00  0.00     0.196 C 
BRANCH  24  25
HETATM   25  O   UNL     1      -4.496  -7.718  16.699  1.00  0.00    -0.398 OA
HETATM   26  H   UNL     1      -3.816  -7.339  17.290  1.00  0.00     0.209 HD
ENDBRANCH  24  25
ENDBRANCH  20  24
BRANCH  22  27
HETATM   27  O   UNL     1      -0.593  -9.469  13.697  1.00  0.00    -0.393 OA
HETATM   28  H   UNL     1      -0.330  -8.537  13.575  1.00  0.00     0.210 HD
ENDBRANCH  22  27
BRANCH  23  29
HETATM   29  N   UNL     1      -1.421  -7.508  11.927  1.00  0.00    -0.346 N 
HETATM   30  C   UNL     1      -1.245  -7.803  10.598  1.00  0.00     0.241 C 
HETATM   31  O   UNL     1      -1.709  -8.802  10.064  1.00  0.00    -0.269 OA
HETATM   32  H   UNL     1      -1.112  -6.613  12.302  1.00  0.00     0.163 HD
BRANCH  30  33
HETATM   33  C   UNL     1      -0.559  -6.735   9.844  1.00  0.00     0.080 C 
HETATM   34  C   UNL     1      -0.399  -6.897   8.524  1.00  0.00     0.086 C 
BRANCH  34  35
HETATM   35  C   UNL     1       0.134  -5.794   7.724  1.00  0.00     0.165 C 
HETATM   36  O   UNL     1       0.840  -5.877   6.739  1.00  0.00    -0.647 OA
BRANCH  35  37
HETATM   37  O   UNL     1      -0.241  -4.619   8.250  1.00  0.00    -0.773 OA
HETATM   38  H   UNL     1      -0.467  -4.066   7.473  1.00  0.00     0.167 HD
ENDBRANCH  35  37
ENDBRANCH  34  35
ENDBRANCH  30  33
ENDBRANCH  23  29
ENDBRANCH  17  18
ENDBRANCH  11  17
BRANCH  12  39
HETATM   39  O   UNL     1      -3.849  -3.494  14.171  1.00  0.00    -0.391 OA
HETATM   40  H   UNL     1      -3.216  -3.308  13.448  1.00  0.00     0.210 HD
ENDBRANCH  12  39
BRANCH  13  41
HETATM   41  N   UNL     1      -3.376  -2.133  16.516  1.00  0.00    -0.346 N 
HETATM   42  C   UNL     1      -4.052  -2.145  17.703  1.00  0.00     0.241 C 
HETATM   43  O   UNL     1      -4.027  -3.087  18.487  1.00  0.00    -0.269 OA
HETATM   44  H   UNL     1      -3.356  -1.290  15.954  1.00  0.00     0.163 HD
BRANCH  42  45
HETATM   45  C   UNL     1      -4.806  -0.901  17.952  1.00  0.00     0.080 C 
HETATM   46  C   UNL     1      -5.076  -0.083  16.928  1.00  0.00     0.086 C 
BRANCH  46  47
HETATM   47  C   UNL     1      -5.863   1.125  17.176  1.00  0.00     0.165 C 
HETATM   48  O   UNL     1      -6.813   1.246  17.926  1.00  0.00    -0.647 OA
BRANCH  47  49
HETATM   49  O   UNL     1      -5.387   2.150  16.454  1.00  0.00    -0.773 OA
HETATM   50  H   UNL     1      -4.946   2.722  17.116  1.00  0.00     0.167 HD
ENDBRANCH  47  49
ENDBRANCH  46  47
ENDBRANCH  42  45
ENDBRANCH  13  41
ENDBRANCH   7   8
ENDBRANCH   1   7
BRANCH   2  51
HETATM   51  C   UNL     1      -1.063   0.062  12.270  1.00  0.00     0.198 C 
BRANCH  51  52
HETATM   52  O   UNL     1      -0.174  -1.002  11.946  1.00  0.00    -0.398 OA
HETATM   53  H   UNL     1      -0.221  -1.152  10.982  1.00  0.00     0.209 HD
ENDBRANCH  51  52
ENDBRANCH   2  51
BRANCH   3  54
HETATM   54  O   UNL     1       0.687   0.870  16.324  1.00  0.00    -0.391 OA
HETATM   55  H   UNL     1       1.431   0.894  16.956  1.00  0.00     0.210 HD
ENDBRANCH   3  54
BRANCH   4  56
HETATM   56  N   UNL     1       3.179   1.172  14.739  1.00  0.00     0.090 N 
HETATM   57  H   UNL     1       3.942   0.612  14.376  1.00  0.00     0.313 HD
HETATM   58  H   UNL     1       3.346   2.141  14.450  1.00  0.00     0.313 HD
ENDBRANCH   4  56
BRANCH   5  59
HETATM   59  O   UNL     1       1.436   3.187  14.001  1.00  0.00    -0.348 OA
BRANCH  59  60
HETATM   60  C   UNL     1       1.693   4.147  12.959  1.00  0.00     0.186 C 
HETATM   61  C   UNL     1       1.752   3.493  11.553  1.00  0.00     0.179 C 
HETATM   62  O   UNL     1       0.885   4.091  10.566  1.00  0.00    -0.349 OA
HETATM   63  C   UNL     1       0.864   5.520  10.479  1.00  0.00     0.281 C 
HETATM   64  C   UNL     1       0.859   6.215  11.872  1.00  0.00     0.149 C 
HETATM   65  C   UNL     1       0.589   5.220  13.015  1.00  0.00     0.172 C 
BRANCH  61  66
HETATM   66  C   UNL     1       3.184   3.483  10.995  1.00  0.00     0.198 C 
BRANCH  66  67
HETATM   67  O   UNL     1       4.079   4.133  11.890  1.00  0.00    -0.398 OA
HETATM   68  H   UNL     1       3.562   4.435  12.663  1.00  0.00     0.209 HD
ENDBRANCH  66  67
ENDBRANCH  61  66
BRANCH  63  69
HETATM   69  O   UNL     1      -0.259   5.902   9.687  1.00  0.00    -0.349 OA
BRANCH  69  70
HETATM   70  C   UNL     1       0.024   6.246   8.323  1.00  0.00     0.186 C 
HETATM   71  C   UNL     1       1.154   5.371   7.724  1.00  0.00     0.176 C 
HETATM   72  O   UNL     1       0.917   5.043   6.328  1.00  0.00    -0.379 OA
HETATM   73  C   UNL     1       0.394   6.135   5.562  1.00  0.00     0.196 C 
HETATM   74  C   UNL     1      -1.014   6.535   6.041  1.00  0.00     0.139 C 
HETATM   75  C   UNL     1      -1.258   6.042   7.480  1.00  0.00     0.174 C 
BRANCH  71  76
HETATM   76  C   UNL     1       2.547   6.004   7.834  1.00  0.00     0.198 C 
BRANCH  76  77
HETATM   77  O   UNL     1       3.546   4.985   7.833  1.00  0.00    -0.398 OA
HETATM   78  H   UNL     1       4.157   5.197   7.100  1.00  0.00     0.209 HD
ENDBRANCH  76  77
ENDBRANCH  71  76
BRANCH  74  79
HETATM   79  N   UNL     1      -2.043   6.022   5.135  1.00  0.00    -0.348 N 
HETATM   80  C   UNL     1      -2.374   6.656   3.969  1.00  0.00     0.241 C 
HETATM   81  O   UNL     1      -1.867   7.704   3.587  1.00  0.00    -0.269 OA
HETATM   82  H   UNL     1      -2.614   5.260   5.481  1.00  0.00     0.163 HD
BRANCH  80  83
HETATM   83  C   UNL     1      -3.390   5.928   3.178  1.00  0.00     0.080 C 
HETATM   84  C   UNL     1      -4.045   6.575   2.205  1.00  0.00     0.086 C 
BRANCH  84  85
HETATM   85  C   UNL     1      -4.970   5.829   1.352  1.00  0.00     0.165 C 
HETATM   86  O   UNL     1      -5.002   5.819   0.136  1.00  0.00    -0.647 OA
BRANCH  85  87
HETATM   87  O   UNL     1      -5.840   5.134   2.101  1.00  0.00    -0.773 OA
HETATM   88  H   UNL     1      -6.719   5.447   1.803  1.00  0.00     0.167 HD
ENDBRANCH  85  87
ENDBRANCH  84  85
ENDBRANCH  80  83
ENDBRANCH  74  79
BRANCH  75  89
HETATM   89  O   UNL     1      -1.665   4.661   7.459  1.00  0.00    -0.391 OA
HETATM   90  H   UNL     1      -2.465   4.571   8.008  1.00  0.00     0.210 HD
ENDBRANCH  75  89
ENDBRANCH  69  70
ENDBRANCH  63  69
BRANCH  64  91
HETATM   91  N   UNL     1       0.204   7.529  11.998  1.00  0.00    -0.247 NA
HETATM   92  C   UNL     1       0.703   8.648  11.387  1.00  0.00     0.221 C 
HETATM   93  O   UNL     1       0.101   9.115  10.423  1.00  0.00    -0.275 OA
HETATM   94  H   UNL     1      -0.738   7.458  11.630  1.00  0.00     0.131 HD
BRANCH  92  95
HETATM   95  C   UNL     1       1.739   9.396  12.113  1.00  0.00     0.074 C 
HETATM   96  C   UNL     1       1.743   9.208  13.441  1.00  0.00     0.086 C 
BRANCH  96  97
HETATM   97  C   UNL     1       2.768   9.797  14.301  1.00  0.00     0.165 C 
HETATM   98  O   UNL     1       2.700  10.814  14.964  1.00  0.00    -0.647 OA
BRANCH  97  99
HETATM   99  O   UNL     1       3.880   9.045  14.256  1.00  0.00    -0.773 OA
HETATM  100  H   UNL     1       4.067   8.957  13.299  1.00  0.00     0.167 HD
ENDBRANCH  97  99
ENDBRANCH  96  97
ENDBRANCH  92  95
ENDBRANCH  64  91
BRANCH  65 101
HETATM  101  O   UNL     1      -0.709   4.638  12.917  1.00  0.00    -0.391 OA
HETATM  102  H   UNL     1      -0.605   3.784  12.454  1.00  0.00     0.210 HD
ENDBRANCH  65 101
ENDBRANCH  59  60
ENDBRANCH   5  59
TORSDOF 40
ENDMDL
MODEL 5
REMARK VINA RESULT:      -8.0      3.870      6.671
REMARK WARNING: 32 MAX_TORS EXCEEDED!!!
REMARK  40 active torsions:
REMARK  status: ('A' for Active; 'I' for Inactive)
REMARK    1  A    between atoms: C_1  and  O_44 
REMARK    2  A    between atoms: C_2  and  C_6 
REMARK    3  A    between atoms: C_3  and  O_10 
REMARK    4  A    between atoms: C_4  and  N_12 
REMARK    5  A    between atoms: C_5  and  O_14 
REMARK    6  A    between atoms: C_6  and  O_7 
REMARK    7  A    between atoms: O_14  and  C_27 
REMARK    8  A    between atoms: O_16  and  C_21 
REMARK    9  A    between atoms: C_18  and  C_33 
REMARK   10  A    between atoms: O_20  and  C_33 
REMARK   11  A    between atoms: O_22  and  C_30 
REMARK   12  A    between atoms: O_22  and  C_70 
REMARK   13  A    between atoms: O_23  and  C_24 
REMARK   14  A    between atoms: C_24  and  C_28 
REMARK       I    between atoms: N_29  and  C_32 
REMARK   15  A    between atoms: N_29  and  C_35 
REMARK   16  A    between atoms: C_31  and  C_32 
REMARK   17  A    between atoms: O_38  and  C_43 
REMARK   18  A    between atoms: C_40  and  C_55 
REMARK   19  A    between atoms: O_42  and  C_55 
REMARK   20  A    between atoms: O_44  and  C_52 
REMARK   21  A    between atoms: O_45  and  C_46 
REMARK   22  A    between atoms: C_46  and  C_50 
REMARK   23  A    between atoms: C_49  and  O_87 
REMARK       I    between atoms: N_51  and  C_54 
REMARK   24  A    between atoms: N_51  and  C_57 
REMARK   25  A    between atoms: C_53  and  C_54 
REMARK   26  A    between atoms: O_60  and  C_65 
REMARK   27  A    between atoms: C_62  and  C_76 
REMARK   28  A    between atoms: O_64  and  C_76 
REMARK   29  A    between atoms: O_66  and  C_67 
REMARK   30  A    between atoms: C_67  and  C_71 
REMARK       I    between atoms: N_72  and  C_75 
REMARK   31  A    between atoms: N_72  and  C_78 
REMARK   32  A    between atoms: C_74  and  C_75 
REMARK   33  A    between atoms: O_81  and  C_86 
REMARK   34  A    between atoms: C_83  and  C_98 
REMARK   35  A    between atoms: O_85  and  C_98 
REMARK   36  A    between atoms: O_87  and  C_95 
REMARK   37  A    between atoms: O_88  and  C_89 
REMARK   38  A    between atoms: C_89  and  C_93 
REMARK       I    between atoms: N_94  and  C_97 
REMARK   39  A    between atoms: N_94  and  C_100 
REMARK   40  A    between atoms: C_96  and  C_97 
ROOT
HETATM    1  C   UNL     1       1.423   5.708   8.862  1.00  0.00     0.186 C 
HETATM    2  C   UNL     1       2.708   6.263   9.522  1.00  0.00     0.179 C 
HETATM    3  C   UNL     1       0.234   5.816   9.839  1.00  0.00     0.187 C 
HETATM    4  C   UNL     1       0.635   5.155  11.178  1.00  0.00     0.303 C 
HETATM    5  C   UNL     1       1.875   5.899  11.789  1.00  0.00     0.296 C 
HETATM    6  O   UNL     1       2.484   6.792  10.849  1.00  0.00    -0.349 OA
ENDROOT
BRANCH   1   7
HETATM    7  O   UNL     1       1.134   6.436   7.657  1.00  0.00    -0.348 OA
BRANCH   7   8
HETATM    8  C   UNL     1       0.219   5.805   6.751  1.00  0.00     0.286 C 
HETATM    9  O   UNL     1       0.999   5.275   5.673  1.00  0.00    -0.349 OA
HETATM   10  C   UNL     1       0.250   4.570   4.664  1.00  0.00     0.180 C 
HETATM   11  C   UNL     1      -0.944   5.378   4.106  1.00  0.00     0.186 C 
HETATM   12  C   UNL     1      -0.948   6.800   4.692  1.00  0.00     0.177 C 
HETATM   13  C   UNL     1      -0.857   6.804   6.226  1.00  0.00     0.171 C 
BRANCH  10  14
HETATM   14  C   UNL     1      -0.184   3.190   5.180  1.00  0.00     0.198 C 
BRANCH  14  15
HETATM   15  O   UNL     1      -1.312   2.703   4.460  1.00  0.00    -0.398 OA
HETATM   16  H   UNL     1      -1.895   2.237   5.090  1.00  0.00     0.209 HD
ENDBRANCH  14  15
ENDBRANCH  10  14
BRANCH  11  17
HETATM   17  O   UNL     1      -0.782   5.480   2.683  1.00  0.00    -0.348 OA
BRANCH  17  18
HETATM   18  C   UNL     1      -1.717   6.300   1.977  1.00  0.00     0.286 C 
HETATM   19  O   UNL     1      -2.683   5.424   1.407  1.00  0.00    -0.352 OA
HETATM   20  C   UNL     1      -3.753   6.078   0.701  1.00  0.00     0.150 C 
HETATM   21  C   UNL     1      -3.342   7.391   0.026  1.00  0.00     0.068 C 
HETATM   22  C   UNL     1      -1.875   7.362  -0.364  1.00  0.00     0.148 C 
HETATM   23  C   UNL     1      -0.998   7.157   0.890  1.00  0.00     0.168 C 
BRANCH  20  24
HETATM   24  C   UNL     1      -4.933   6.281   1.660  1.00  0.00     0.196 C 
BRANCH  24  25
HETATM   25  O   UNL     1      -5.729   5.101   1.717  1.00  0.00    -0.398 OA
HETATM   26  H   UNL     1      -6.454   5.227   1.074  1.00  0.00     0.209 HD
ENDBRANCH  24  25
ENDBRANCH  20  24
BRANCH  22  27
HETATM   27  O   UNL     1      -1.683   6.314  -1.319  1.00  0.00    -0.393 OA
HETATM   28  H   UNL     1      -1.834   5.479  -0.835  1.00  0.00     0.210 HD
ENDBRANCH  22  27
BRANCH  23  29
HETATM   29  N   UNL     1       0.338   6.656   0.542  1.00  0.00    -0.346 N 
HETATM   30  C   UNL     1       1.446   7.189   1.151  1.00  0.00     0.241 C 
HETATM   31  O   UNL     1       1.429   8.242   1.775  1.00  0.00    -0.269 OA
HETATM   32  H   UNL     1       0.373   5.725   0.130  1.00  0.00     0.163 HD
BRANCH  30  33
HETATM   33  C   UNL     1       2.628   6.305   1.099  1.00  0.00     0.080 C 
HETATM   34  C   UNL     1       3.837   6.874   0.999  1.00  0.00     0.086 C 
BRANCH  34  35
HETATM   35  C   UNL     1       5.034   6.040   1.102  1.00  0.00     0.165 C 
HETATM   36  O   UNL     1       5.101   4.898   1.510  1.00  0.00    -0.647 OA
BRANCH  35  37
HETATM   37  O   UNL     1       6.113   6.730   0.704  1.00  0.00    -0.773 OA
HETATM   38  H   UNL     1       6.866   6.129   0.882  1.00  0.00     0.167 HD
ENDBRANCH  35  37
ENDBRANCH  34  35
ENDBRANCH  30  33
ENDBRANCH  23  29
ENDBRANCH  17  18
ENDBRANCH  11  17
BRANCH  12  39
HETATM   39  O   UNL     1       0.103   7.601   4.118  1.00  0.00    -0.391 OA
HETATM   40  H   UNL     1      -0.243   7.993   3.291  1.00  0.00     0.210 HD
ENDBRANCH  12  39
BRANCH  13  41
HETATM   41  N   UNL     1      -0.679   8.177   6.694  1.00  0.00    -0.346 N 
HETATM   42  C   UNL     1      -1.317   8.660   7.801  1.00  0.00     0.241 C 
HETATM   43  O   UNL     1      -2.179   8.038   8.411  1.00  0.00    -0.269 OA
HETATM   44  H   UNL     1       0.093   8.695   6.289  1.00  0.00     0.163 HD
BRANCH  42  45
HETATM   45  C   UNL     1      -0.851  10.004   8.197  1.00  0.00     0.080 C 
HETATM   46  C   UNL     1       0.339  10.438   7.766  1.00  0.00     0.086 C 
BRANCH  46  47
HETATM   47  C   UNL     1       0.772  11.788   8.125  1.00  0.00     0.165 C 
HETATM   48  O   UNL     1       0.365  12.475   9.043  1.00  0.00    -0.647 OA
BRANCH  47  49
HETATM   49  O   UNL     1       1.734  12.209   7.290  1.00  0.00    -0.773 OA
HETATM   50  H   UNL     1       2.357  11.454   7.247  1.00  0.00     0.167 HD
ENDBRANCH  47  49
ENDBRANCH  46  47
ENDBRANCH  42  45
ENDBRANCH  13  41
ENDBRANCH   7   8
ENDBRANCH   1   7
BRANCH   2  51
HETATM   51  C   UNL     1       3.825   5.208   9.560  1.00  0.00     0.198 C 
BRANCH  51  52
HETATM   52  O   UNL     1       3.772   4.370   8.409  1.00  0.00    -0.398 OA
HETATM   53  H   UNL     1       2.883   3.969   8.369  1.00  0.00     0.209 HD
ENDBRANCH  51  52
ENDBRANCH   2  51
BRANCH   3  54
HETATM   54  O   UNL     1      -0.180   7.176  10.043  1.00  0.00    -0.391 OA
HETATM   55  H   UNL     1       0.014   7.673   9.224  1.00  0.00     0.210 HD
ENDBRANCH   3  54
BRANCH   4  56
HETATM   56  N   UNL     1      -0.540   5.026  12.058  1.00  0.00     0.090 N 
HETATM   57  H   UNL     1      -0.686   5.860  12.615  1.00  0.00     0.313 HD
HETATM   58  H   UNL     1      -1.365   4.907  11.462  1.00  0.00     0.313 HD
ENDBRANCH   4  56
BRANCH   5  59
HETATM   59  O   UNL     1       1.487   6.694  12.927  1.00  0.00    -0.348 OA
BRANCH  59  60
HETATM   60  C   UNL     1       2.051   6.270  14.182  1.00  0.00     0.186 C 
HETATM   61  C   UNL     1       2.403   7.467  15.106  1.00  0.00     0.179 C 
HETATM   62  O   UNL     1       1.842   7.397  16.434  1.00  0.00    -0.349 OA
HETATM   63  C   UNL     1       1.938   6.150  17.131  1.00  0.00     0.281 C 
HETATM   64  C   UNL     1       1.644   4.920  16.223  1.00  0.00     0.149 C 
HETATM   65  C   UNL     1       1.041   5.331  14.868  1.00  0.00     0.172 C 
BRANCH  61  66
HETATM   66  C   UNL     1       3.923   7.652  15.234  1.00  0.00     0.198 C 
BRANCH  66  67
HETATM   67  O   UNL     1       4.339   8.858  14.604  1.00  0.00    -0.398 OA
HETATM   68  H   UNL     1       4.376   9.556  15.288  1.00  0.00     0.209 HD
ENDBRANCH  66  67
ENDBRANCH  61  66
BRANCH  63  69
HETATM   69  O   UNL     1       1.067   6.202  18.259  1.00  0.00    -0.349 OA
BRANCH  69  70
HETATM   70  C   UNL     1       1.615   6.792  19.447  1.00  0.00     0.186 C 
HETATM   71  C   UNL     1       0.806   6.411  20.712  1.00  0.00     0.176 C 
HETATM   72  O   UNL     1       1.658   6.208  21.872  1.00  0.00    -0.379 OA
HETATM   73  C   UNL     1       2.721   7.163  21.979  1.00  0.00     0.196 C 
HETATM   74  C   UNL     1       3.721   7.024  20.816  1.00  0.00     0.139 C 
HETATM   75  C   UNL     1       3.071   6.298  19.624  1.00  0.00     0.174 C 
BRANCH  71  76
HETATM   76  C   UNL     1      -0.270   7.439  21.087  1.00  0.00     0.198 C 
BRANCH  76  77
HETATM   77  O   UNL     1      -1.520   7.070  20.504  1.00  0.00    -0.398 OA
HETATM   78  H   UNL     1      -1.359   6.244  20.005  1.00  0.00     0.209 HD
ENDBRANCH  76  77
ENDBRANCH  71  76
BRANCH  74  79
HETATM   79  N   UNL     1       4.935   6.329  21.248  1.00  0.00    -0.348 N 
HETATM   80  C   UNL     1       6.148   6.532  20.649  1.00  0.00     0.241 C 
HETATM   81  O   UNL     1       6.329   7.283  19.699  1.00  0.00    -0.269 OA
HETATM   82  H   UNL     1       4.814   5.571  21.910  1.00  0.00     0.163 HD
BRANCH  80  83
HETATM   83  C   UNL     1       7.248   5.778  21.290  1.00  0.00     0.080 C 
HETATM   84  C   UNL     1       7.742   6.213  22.456  1.00  0.00     0.086 C 
BRANCH  84  85
HETATM   85  C   UNL     1       8.753   5.410  23.145  1.00  0.00     0.165 C 
HETATM   86  O   UNL     1       8.861   5.235  24.343  1.00  0.00    -0.647 OA
BRANCH  85  87
HETATM   87  O   UNL     1       9.606   4.874  22.259  1.00  0.00    -0.773 OA
HETATM   88  H   UNL     1       9.646   5.531  21.533  1.00  0.00     0.167 HD
ENDBRANCH  85  87
ENDBRANCH  84  85
ENDBRANCH  80  83
ENDBRANCH  74  79
BRANCH  75  89
HETATM   89  O   UNL     1       3.126   4.874  19.833  1.00  0.00    -0.391 OA
HETATM   90  H   UNL     1       2.427   4.632  20.468  1.00  0.00     0.210 HD
ENDBRANCH  75  89
ENDBRANCH  69  70
ENDBRANCH  63  69
BRANCH  64  91
HETATM   91  N   UNL     1       1.068   3.713  16.841  1.00  0.00    -0.247 NA
HETATM   92  C   UNL     1       1.420   2.454  16.434  1.00  0.00     0.221 C 
HETATM   93  O   UNL     1       2.118   1.765  17.174  1.00  0.00    -0.275 OA
HETATM   94  H   UNL     1       1.295   3.714  17.829  1.00  0.00     0.131 HD
BRANCH  92  95
HETATM   95  C   UNL     1       0.682   1.894  15.292  1.00  0.00     0.074 C 
HETATM   96  C   UNL     1       1.371   1.852  14.142  1.00  0.00     0.086 C 
BRANCH  96  97
HETATM   97  C   UNL     1       0.824   1.234  12.936  1.00  0.00     0.165 C 
HETATM   98  O   UNL     1       1.024   0.114  12.508  1.00  0.00    -0.647 OA
BRANCH  97  99
HETATM   99  O   UNL     1       0.036   2.115  12.297  1.00  0.00    -0.773 OA
HETATM  100  H   UNL     1       0.626   2.877  12.123  1.00  0.00     0.167 HD
ENDBRANCH  97  99
ENDBRANCH  96  97
ENDBRANCH  92  95
ENDBRANCH  64  91
BRANCH  65 101
HETATM  101  O   UNL     1      -0.232   5.956  15.021  1.00  0.00    -0.391 OA
HETATM  102  H   UNL     1      -0.400   6.465  14.203  1.00  0.00     0.210 HD
ENDBRANCH  65 101
ENDBRANCH  59  60
ENDBRANCH   5  59
TORSDOF 40
ENDMDL
MODEL 6
REMARK VINA RESULT:      -8.0      2.955      5.992
REMARK WARNING: 32 MAX_TORS EXCEEDED!!!
REMARK  40 active torsions:
REMARK  status: ('A' for Active; 'I' for Inactive)
REMARK    1  A    between atoms: C_1  and  O_44 
REMARK    2  A    between atoms: C_2  and  C_6 
REMARK    3  A    between atoms: C_3  and  O_10 
REMARK    4  A    between atoms: C_4  and  N_12 
REMARK    5  A    between atoms: C_5  and  O_14 
REMARK    6  A    between atoms: C_6  and  O_7 
REMARK    7  A    between atoms: O_14  and  C_27 
REMARK    8  A    between atoms: O_16  and  C_21 
REMARK    9  A    between atoms: C_18  and  C_33 
REMARK   10  A    between atoms: O_20  and  C_33 
REMARK   11  A    between atoms: O_22  and  C_30 
REMARK   12  A    between atoms: O_22  and  C_70 
REMARK   13  A    between atoms: O_23  and  C_24 
REMARK   14  A    between atoms: C_24  and  C_28 
REMARK       I    between atoms: N_29  and  C_32 
REMARK   15  A    between atoms: N_29  and  C_35 
REMARK   16  A    between atoms: C_31  and  C_32 
REMARK   17  A    between atoms: O_38  and  C_43 
REMARK   18  A    between atoms: C_40  and  C_55 
REMARK   19  A    between atoms: O_42  and  C_55 
REMARK   20  A    between atoms: O_44  and  C_52 
REMARK   21  A    between atoms: O_45  and  C_46 
REMARK   22  A    between atoms: C_46  and  C_50 
REMARK   23  A    between atoms: C_49  and  O_87 
REMARK       I    between atoms: N_51  and  C_54 
REMARK   24  A    between atoms: N_51  and  C_57 
REMARK   25  A    between atoms: C_53  and  C_54 
REMARK   26  A    between atoms: O_60  and  C_65 
REMARK   27  A    between atoms: C_62  and  C_76 
REMARK   28  A    between atoms: O_64  and  C_76 
REMARK   29  A    between atoms: O_66  and  C_67 
REMARK   30  A    between atoms: C_67  and  C_71 
REMARK       I    between atoms: N_72  and  C_75 
REMARK   31  A    between atoms: N_72  and  C_78 
REMARK   32  A    between atoms: C_74  and  C_75 
REMARK   33  A    between atoms: O_81  and  C_86 
REMARK   34  A    between atoms: C_83  and  C_98 
REMARK   35  A    between atoms: O_85  and  C_98 
REMARK   36  A    between atoms: O_87  and  C_95 
REMARK   37  A    between atoms: O_88  and  C_89 
REMARK   38  A    between atoms: C_89  and  C_93 
REMARK       I    between atoms: N_94  and  C_97 
REMARK   39  A    between atoms: N_94  and  C_100 
REMARK   40  A    between atoms: C_96  and  C_97 
ROOT
HETATM    1  C   UNL     1       1.830   6.575   9.152  1.00  0.00     0.186 C 
HETATM    2  C   UNL     1       0.623   5.651   9.444  1.00  0.00     0.179 C 
HETATM    3  C   UNL     1       3.131   5.932   9.675  1.00  0.00     0.187 C 
HETATM    4  C   UNL     1       2.929   5.548  11.159  1.00  0.00     0.303 C 
HETATM    5  C   UNL     1       1.754   4.515  11.286  1.00  0.00     0.296 C 
HETATM    6  O   UNL     1       1.000   4.405  10.074  1.00  0.00    -0.349 OA
ENDROOT
BRANCH   1   7
HETATM    7  O   UNL     1       1.936   6.815   7.738  1.00  0.00    -0.348 OA
BRANCH   7   8
HETATM    8  C   UNL     1       0.950   6.172   6.921  1.00  0.00     0.286 C 
HETATM    9  O   UNL     1       1.635   5.648   5.776  1.00  0.00    -0.349 OA
HETATM   10  C   UNL     1       0.806   4.933   4.840  1.00  0.00     0.180 C 
HETATM   11  C   UNL     1      -0.442   5.726   4.392  1.00  0.00     0.186 C 
HETATM   12  C   UNL     1      -0.409   7.149   4.974  1.00  0.00     0.177 C 
HETATM   13  C   UNL     1      -0.180   7.158   6.493  1.00  0.00     0.171 C 
BRANCH  10  14
HETATM   14  C   UNL     1       0.436   3.549   5.396  1.00  0.00     0.198 C 
BRANCH  14  15
HETATM   15  O   UNL     1      -0.964   3.310   5.288  1.00  0.00    -0.398 OA
HETATM   16  H   UNL     1      -1.430   4.013   5.781  1.00  0.00     0.209 HD
ENDBRANCH  14  15
ENDBRANCH  10  14
BRANCH  11  17
HETATM   17  O   UNL     1      -0.411   5.826   2.960  1.00  0.00    -0.348 OA
BRANCH  17  18
HETATM   18  C   UNL     1      -1.502   6.503   2.329  1.00  0.00     0.286 C 
HETATM   19  O   UNL     1      -2.456   5.506   1.979  1.00  0.00    -0.352 OA
HETATM   20  C   UNL     1      -3.665   6.008   1.381  1.00  0.00     0.150 C 
HETATM   21  C   UNL     1      -3.466   7.278   0.547  1.00  0.00     0.068 C 
HETATM   22  C   UNL     1      -2.069   7.322  -0.046  1.00  0.00     0.148 C 
HETATM   23  C   UNL     1      -1.015   7.304   1.082  1.00  0.00     0.168 C 
BRANCH  20  24
HETATM   24  C   UNL     1      -4.716   6.212   2.479  1.00  0.00     0.196 C 
BRANCH  24  25
HETATM   25  O   UNL     1      -5.888   5.457   2.185  1.00  0.00    -0.398 OA
HETATM   26  H   UNL     1      -6.206   5.100   3.037  1.00  0.00     0.209 HD
ENDBRANCH  24  25
ENDBRANCH  20  24
BRANCH  22  27
HETATM   27  O   UNL     1      -1.918   6.205  -0.927  1.00  0.00    -0.393 OA
HETATM   28  H   UNL     1      -1.550   6.565  -1.756  1.00  0.00     0.210 HD
ENDBRANCH  22  27
BRANCH  23  29
HETATM   29  N   UNL     1       0.300   6.874   0.589  1.00  0.00    -0.346 N 
HETATM   30  C   UNL     1       1.440   7.422   1.121  1.00  0.00     0.241 C 
HETATM   31  O   UNL     1       1.443   8.444   1.795  1.00  0.00    -0.269 OA
HETATM   32  H   UNL     1       0.330   5.965   0.130  1.00  0.00     0.163 HD
BRANCH  30  33
HETATM   33  C   UNL     1       2.643   6.591   0.917  1.00  0.00     0.080 C 
HETATM   34  C   UNL     1       3.754   6.913   1.592  1.00  0.00     0.086 C 
BRANCH  34  35
HETATM   35  C   UNL     1       4.914   6.023   1.535  1.00  0.00     0.165 C 
HETATM   36  O   UNL     1       5.016   4.918   2.030  1.00  0.00    -0.647 OA
BRANCH  35  37
HETATM   37  O   UNL     1       5.916   6.612   0.866  1.00  0.00    -0.773 OA
HETATM   38  H   UNL     1       5.927   7.531   1.203  1.00  0.00     0.167 HD
ENDBRANCH  35  37
ENDBRANCH  34  35
ENDBRANCH  30  33
ENDBRANCH  23  29
ENDBRANCH  17  18
ENDBRANCH  11  17
BRANCH  12  39
HETATM   39  O   UNL     1       0.577   7.960   4.306  1.00  0.00    -0.391 OA
HETATM   40  H   UNL     1       1.047   7.387   3.667  1.00  0.00     0.210 HD
ENDBRANCH  12  39
BRANCH  13  41
HETATM   41  N   UNL     1       0.025   8.535   6.941  1.00  0.00    -0.346 N 
HETATM   42  C   UNL     1      -0.752   9.112   7.905  1.00  0.00     0.241 C 
HETATM   43  O   UNL     1      -1.752   8.582   8.375  1.00  0.00    -0.269 OA
HETATM   44  H   UNL     1       0.893   8.976   6.659  1.00  0.00     0.163 HD
BRANCH  42  45
HETATM   45  C   UNL     1      -0.255  10.435   8.333  1.00  0.00     0.080 C 
HETATM   46  C   UNL     1      -1.126  11.349   8.779  1.00  0.00     0.086 C 
BRANCH  46  47
HETATM   47  C   UNL     1      -0.620  12.640   9.244  1.00  0.00     0.165 C 
HETATM   48  O   UNL     1      -1.208  13.705   9.251  1.00  0.00    -0.647 OA
BRANCH  47  49
HETATM   49  O   UNL     1       0.635  12.513   9.702  1.00  0.00    -0.773 OA
HETATM   50  H   UNL     1       0.804  13.359  10.166  1.00  0.00     0.167 HD
ENDBRANCH  47  49
ENDBRANCH  46  47
ENDBRANCH  42  45
ENDBRANCH  13  41
ENDBRANCH   7   8
ENDBRANCH   1   7
BRANCH   2  51
HETATM   51  C   UNL     1      -0.444   6.365  10.289  1.00  0.00     0.198 C 
BRANCH  51  52
HETATM   52  O   UNL     1       0.049   7.604  10.789  1.00  0.00    -0.398 OA
HETATM   53  H   UNL     1       0.706   7.409  11.485  1.00  0.00     0.209 HD
ENDBRANCH  51  52
ENDBRANCH   2  51
BRANCH   3  54
HETATM   54  O   UNL     1       3.522   4.789   8.899  1.00  0.00    -0.391 OA
HETATM   55  H   UNL     1       3.878   4.117   9.513  1.00  0.00     0.210 HD
ENDBRANCH   3  54
BRANCH   4  56
HETATM   56  N   UNL     1       4.211   5.148  11.764  1.00  0.00     0.090 N 
HETATM   57  H   UNL     1       4.133   4.269  12.263  1.00  0.00     0.313 HD
HETATM   58  H   UNL     1       4.886   5.010  11.005  1.00  0.00     0.313 HD
ENDBRANCH   4  56
BRANCH   5  59
HETATM   59  O   UNL     1       2.260   3.198  11.582  1.00  0.00    -0.348 OA
BRANCH  59  60
HETATM   60  C   UNL     1       1.548   2.494  12.618  1.00  0.00     0.186 C 
HETATM   61  C   UNL     1       2.355   1.295  13.180  1.00  0.00     0.179 C 
HETATM   62  O   UNL     1       2.513   1.285  14.614  1.00  0.00    -0.349 OA
HETATM   63  C   UNL     1       1.355   1.558  15.412  1.00  0.00     0.281 C 
HETATM   64  C   UNL     1       0.489   2.723  14.850  1.00  0.00     0.149 C 
HETATM   65  C   UNL     1       1.216   3.500  13.737  1.00  0.00     0.172 C 
BRANCH  61  66
HETATM   66  C   UNL     1       1.741  -0.048  12.753  1.00  0.00     0.198 C 
BRANCH  66  67
HETATM   67  O   UNL     1       2.599  -1.129  13.097  1.00  0.00    -0.398 OA
HETATM   68  H   UNL     1       3.277  -1.207  12.398  1.00  0.00     0.209 HD
ENDBRANCH  66  67
ENDBRANCH  61  66
BRANCH  63  69
HETATM   69  O   UNL     1       1.785   1.808  16.749  1.00  0.00    -0.349 OA
BRANCH  69  70
HETATM   70  C   UNL     1       1.563   0.745  17.687  1.00  0.00     0.186 C 
HETATM   71  C   UNL     1       0.425  -0.203  17.235  1.00  0.00     0.176 C 
HETATM   72  O   UNL     1       0.699  -1.592  17.564  1.00  0.00    -0.379 OA
HETATM   73  C   UNL     1       1.289  -1.770  18.858  1.00  0.00     0.196 C 
HETATM   74  C   UNL     1       2.692  -1.140  18.927  1.00  0.00     0.139 C 
HETATM   75  C   UNL     1       2.866  -0.079  17.825  1.00  0.00     0.174 C 
BRANCH  71  76
HETATM   76  C   UNL     1      -0.948   0.163  17.817  1.00  0.00     0.198 C 
BRANCH  76  77
HETATM   77  O   UNL     1      -1.134   1.577  17.773  1.00  0.00    -0.398 OA
HETATM   78  H   UNL     1      -0.782   1.929  18.615  1.00  0.00     0.209 HD
ENDBRANCH  76  77
ENDBRANCH  71  76
BRANCH  74  79
HETATM   79  N   UNL     1       3.733  -2.165  18.831  1.00  0.00    -0.348 N 
HETATM   80  C   UNL     1       4.640  -2.384  19.832  1.00  0.00     0.241 C 
HETATM   81  O   UNL     1       4.681  -1.745  20.876  1.00  0.00    -0.269 OA
HETATM   82  H   UNL     1       3.857  -2.603  17.926  1.00  0.00     0.163 HD
BRANCH  80  83
HETATM   83  C   UNL     1       5.556  -3.511  19.551  1.00  0.00     0.080 C 
HETATM   84  C   UNL     1       6.873  -3.339  19.730  1.00  0.00     0.086 C 
BRANCH  84  85
HETATM   85  C   UNL     1       7.770  -4.483  19.557  1.00  0.00     0.165 C 
HETATM   86  O   UNL     1       8.981  -4.457  19.460  1.00  0.00    -0.647 OA
BRANCH  85  87
HETATM   87  O   UNL     1       7.066  -5.623  19.495  1.00  0.00    -0.773 OA
HETATM   88  H   UNL     1       7.334  -6.026  18.643  1.00  0.00     0.167 HD
ENDBRANCH  85  87
ENDBRANCH  84  85
ENDBRANCH  80  83
ENDBRANCH  74  79
BRANCH  75  89
HETATM   89  O   UNL     1       3.223  -0.719  16.586  1.00  0.00    -0.391 OA
HETATM   90  H   UNL     1       4.143  -1.033  16.658  1.00  0.00     0.210 HD
ENDBRANCH  75  89
ENDBRANCH  69  70
ENDBRANCH  63  69
BRANCH  64  91
HETATM   91  N   UNL     1      -0.290   3.539  15.797  1.00  0.00    -0.247 NA
HETATM   92  C   UNL     1      -0.004   4.860  16.018  1.00  0.00     0.221 C 
HETATM   93  O   UNL     1      -0.775   5.713  15.584  1.00  0.00    -0.275 OA
HETATM   94  H   UNL     1      -1.257   3.553  15.494  1.00  0.00     0.131 HD
BRANCH  92  95
HETATM   95  C   UNL     1       1.024   5.159  17.024  1.00  0.00     0.074 C 
HETATM   96  C   UNL     1       0.843   4.560  18.211  1.00  0.00     0.086 C 
BRANCH  96  97
HETATM   97  C   UNL     1       1.823   4.669  19.289  1.00  0.00     0.165 C 
HETATM   98  O   UNL     1       1.903   5.526  20.148  1.00  0.00    -0.647 OA
BRANCH  97  99
HETATM   99  O   UNL     1       2.701   3.657  19.203  1.00  0.00    -0.773 OA
HETATM  100  H   UNL     1       2.222   2.894  19.588  1.00  0.00     0.167 HD
ENDBRANCH  97  99
ENDBRANCH  96  97
ENDBRANCH  92  95
ENDBRANCH  64  91
BRANCH  65 101
HETATM  101  O   UNL     1       2.389   4.148  14.221  1.00  0.00    -0.391 OA
HETATM  102  H   UNL     1       3.125   3.511  14.133  1.00  0.00     0.210 HD
ENDBRANCH  65 101
ENDBRANCH  59  60
ENDBRANCH   5  59
TORSDOF 40
ENDMDL
MODEL 7
REMARK VINA RESULT:      -7.9      3.713     14.329
REMARK WARNING: 32 MAX_TORS EXCEEDED!!!
REMARK  40 active torsions:
REMARK  status: ('A' for Active; 'I' for Inactive)
REMARK    1  A    between atoms: C_1  and  O_44 
REMARK    2  A    between atoms: C_2  and  C_6 
REMARK    3  A    between atoms: C_3  and  O_10 
REMARK    4  A    between atoms: C_4  and  N_12 
REMARK    5  A    between atoms: C_5  and  O_14 
REMARK    6  A    between atoms: C_6  and  O_7 
REMARK    7  A    between atoms: O_14  and  C_27 
REMARK    8  A    between atoms: O_16  and  C_21 
REMARK    9  A    between atoms: C_18  and  C_33 
REMARK   10  A    between atoms: O_20  and  C_33 
REMARK   11  A    between atoms: O_22  and  C_30 
REMARK   12  A    between atoms: O_22  and  C_70 
REMARK   13  A    between atoms: O_23  and  C_24 
REMARK   14  A    between atoms: C_24  and  C_28 
REMARK       I    between atoms: N_29  and  C_32 
REMARK   15  A    between atoms: N_29  and  C_35 
REMARK   16  A    between atoms: C_31  and  C_32 
REMARK   17  A    between atoms: O_38  and  C_43 
REMARK   18  A    between atoms: C_40  and  C_55 
REMARK   19  A    between atoms: O_42  and  C_55 
REMARK   20  A    between atoms: O_44  and  C_52 
REMARK   21  A    between atoms: O_45  and  C_46 
REMARK   22  A    between atoms: C_46  and  C_50 
REMARK   23  A    between atoms: C_49  and  O_87 
REMARK       I    between atoms: N_51  and  C_54 
REMARK   24  A    between atoms: N_51  and  C_57 
REMARK   25  A    between atoms: C_53  and  C_54 
REMARK   26  A    between atoms: O_60  and  C_65 
REMARK   27  A    between atoms: C_62  and  C_76 
REMARK   28  A    between atoms: O_64  and  C_76 
REMARK   29  A    between atoms: O_66  and  C_67 
REMARK   30  A    between atoms: C_67  and  C_71 
REMARK       I    between atoms: N_72  and  C_75 
REMARK   31  A    between atoms: N_72  and  C_78 
REMARK   32  A    between atoms: C_74  and  C_75 
REMARK   33  A    between atoms: O_81  and  C_86 
REMARK   34  A    between atoms: C_83  and  C_98 
REMARK   35  A    between atoms: O_85  and  C_98 
REMARK   36  A    between atoms: O_87  and  C_95 
REMARK   37  A    between atoms: O_88  and  C_89 
REMARK   38  A    between atoms: C_89  and  C_93 
REMARK       I    between atoms: N_94  and  C_97 
REMARK   39  A    between atoms: N_94  and  C_100 
REMARK   40  A    between atoms: C_96  and  C_97 
ROOT
HETATM    1  C   UNL     1      -1.141   0.452  14.967  1.00  0.00     0.186 C 
HETATM    2  C   UNL     1      -0.324   0.540  13.655  1.00  0.00     0.179 C 
HETATM    3  C   UNL     1      -1.719   1.836  15.327  1.00  0.00     0.187 C 
HETATM    4  C   UNL     1      -0.568   2.868  15.327  1.00  0.00     0.303 C 
HETATM    5  C   UNL     1       0.085   2.936  13.901  1.00  0.00     0.296 C 
HETATM    6  O   UNL     1      -0.343   1.858  13.061  1.00  0.00    -0.349 OA
ENDROOT
BRANCH   1   7
HETATM    7  O   UNL     1      -2.206  -0.501  14.822  1.00  0.00    -0.348 OA
BRANCH   7   8
HETATM    8  C   UNL     1      -1.880  -1.857  15.154  1.00  0.00     0.286 C 
HETATM    9  O   UNL     1      -1.872  -2.596  13.926  1.00  0.00    -0.349 OA
HETATM   10  C   UNL     1      -1.532  -3.991  14.053  1.00  0.00     0.180 C 
HETATM   11  C   UNL     1      -2.374  -4.736  15.114  1.00  0.00     0.186 C 
HETATM   12  C   UNL     1      -3.463  -3.809  15.680  1.00  0.00     0.177 C 
HETATM   13  C   UNL     1      -2.897  -2.466  16.167  1.00  0.00     0.171 C 
BRANCH  10  14
HETATM   14  C   UNL     1      -0.025  -4.158  14.298  1.00  0.00     0.198 C 
BRANCH  14  15
HETATM   15  O   UNL     1       0.323  -5.532  14.445  1.00  0.00    -0.398 OA
HETATM   16  H   UNL     1      -0.171  -6.041  13.774  1.00  0.00     0.209 HD
ENDBRANCH  14  15
ENDBRANCH  10  14
BRANCH  11  17
HETATM   17  O   UNL     1      -3.019  -5.843  14.467  1.00  0.00    -0.348 OA
BRANCH  17  18
HETATM   18  C   UNL     1      -2.755  -7.149  14.989  1.00  0.00     0.286 C 
HETATM   19  O   UNL     1      -1.799  -6.987  16.032  1.00  0.00    -0.352 OA
HETATM   20  C   UNL     1      -1.450  -8.199  16.726  1.00  0.00     0.150 C 
HETATM   21  C   UNL     1      -1.499  -9.455  15.849  1.00  0.00     0.068 C 
HETATM   22  C   UNL     1      -1.199  -9.115  14.400  1.00  0.00     0.148 C 
HETATM   23  C   UNL     1      -2.237  -8.103  13.869  1.00  0.00     0.168 C 
BRANCH  20  24
HETATM   24  C   UNL     1      -2.343  -8.338  17.965  1.00  0.00     0.196 C 
BRANCH  24  25
HETATM   25  O   UNL     1      -1.762  -7.652  19.070  1.00  0.00    -0.398 OA
HETATM   26  H   UNL     1      -2.250  -6.810  19.158  1.00  0.00     0.209 HD
ENDBRANCH  24  25
ENDBRANCH  20  24
BRANCH  22  27
HETATM   27  O   UNL     1       0.131  -8.595  14.326  1.00  0.00    -0.393 OA
HETATM   28  H   UNL     1       0.079  -7.674  14.646  1.00  0.00     0.210 HD
ENDBRANCH  22  27
BRANCH  23  29
HETATM   29  N   UNL     1      -1.743  -7.394  12.681  1.00  0.00    -0.346 N 
HETATM   30  C   UNL     1      -2.499  -7.376  11.535  1.00  0.00     0.241 C 
HETATM   31  O   UNL     1      -3.439  -8.134  11.338  1.00  0.00    -0.269 OA
HETATM   32  H   UNL     1      -1.043  -6.673  12.848  1.00  0.00     0.163 HD
BRANCH  30  33
HETATM   33  C   UNL     1      -2.156  -6.268  10.621  1.00  0.00     0.080 C 
HETATM   34  C   UNL     1      -1.378  -6.539   9.565  1.00  0.00     0.086 C 
BRANCH  34  35
HETATM   35  C   UNL     1      -1.148  -5.503   8.558  1.00  0.00     0.165 C 
HETATM   36  O   UNL     1      -0.236  -4.701   8.525  1.00  0.00    -0.647 OA
BRANCH  35  37
HETATM   37  O   UNL     1      -2.129  -5.522   7.643  1.00  0.00    -0.773 OA
HETATM   38  H   UNL     1      -2.009  -6.375   7.175  1.00  0.00     0.167 HD
ENDBRANCH  35  37
ENDBRANCH  34  35
ENDBRANCH  30  33
ENDBRANCH  23  29
ENDBRANCH  17  18
ENDBRANCH  11  17
BRANCH  12  39
HETATM   39  O   UNL     1      -4.517  -3.599  14.721  1.00  0.00    -0.391 OA
HETATM   40  H   UNL     1      -5.359  -3.857  15.146  1.00  0.00     0.210 HD
ENDBRANCH  12  39
BRANCH  13  41
HETATM   41  N   UNL     1      -4.003  -1.575  16.514  1.00  0.00    -0.346 N 
HETATM   42  C   UNL     1      -3.937  -0.705  17.566  1.00  0.00     0.241 C 
HETATM   43  O   UNL     1      -3.016  -0.688  18.373  1.00  0.00    -0.269 OA
HETATM   44  H   UNL     1      -4.739  -1.479  15.824  1.00  0.00     0.163 HD
BRANCH  42  45
HETATM   45  C   UNL     1      -5.083   0.224  17.621  1.00  0.00     0.080 C 
HETATM   46  C   UNL     1      -6.322  -0.271  17.732  1.00  0.00     0.086 C 
BRANCH  46  47
HETATM   47  C   UNL     1      -7.448   0.657  17.832  1.00  0.00     0.165 C 
HETATM   48  O   UNL     1      -7.657   1.473  18.710  1.00  0.00    -0.647 OA
BRANCH  47  49
HETATM   49  O   UNL     1      -8.268   0.513  16.780  1.00  0.00    -0.773 OA
HETATM   50  H   UNL     1      -7.838  -0.179  16.237  1.00  0.00     0.167 HD
ENDBRANCH  47  49
ENDBRANCH  46  47
ENDBRANCH  42  45
ENDBRANCH  13  41
ENDBRANCH   7   8
ENDBRANCH   1   7
BRANCH   2  51
HETATM   51  C   UNL     1       1.128   0.079  13.861  1.00  0.00     0.198 C 
BRANCH  51  52
HETATM   52  O   UNL     1       1.355  -0.292  15.217  1.00  0.00    -0.398 OA
HETATM   53  H   UNL     1       2.305  -0.496  15.319  1.00  0.00     0.209 HD
ENDBRANCH  51  52
ENDBRANCH   2  51
BRANCH   3  54
HETATM   54  O   UNL     1      -2.767   2.237  14.430  1.00  0.00    -0.391 OA
HETATM   55  H   UNL     1      -2.541   1.904  13.539  1.00  0.00     0.210 HD
ENDBRANCH   3  54
BRANCH   4  56
HETATM   56  N   UNL     1      -1.027   4.149  15.890  1.00  0.00     0.090 N 
HETATM   57  H   UNL     1      -0.406   4.484  16.618  1.00  0.00     0.313 HD
HETATM   58  H   UNL     1      -1.017   4.844  15.136  1.00  0.00     0.313 HD
ENDBRANCH   4  56
BRANCH   5  59
HETATM   59  O   UNL     1      -0.278   4.158  13.229  1.00  0.00    -0.348 OA
BRANCH  59  60
HETATM   60  C   UNL     1       0.819   4.856  12.609  1.00  0.00     0.186 C 
HETATM   61  C   UNL     1       1.133   4.320  11.187  1.00  0.00     0.179 C 
HETATM   62  O   UNL     1       1.165   5.323  10.150  1.00  0.00    -0.349 OA
HETATM   63  C   UNL     1       1.876   6.536  10.422  1.00  0.00     0.281 C 
HETATM   64  C   UNL     1       1.628   7.078  11.860  1.00  0.00     0.149 C 
HETATM   65  C   UNL     1       0.463   6.354  12.559  1.00  0.00     0.172 C 
BRANCH  61  66
HETATM   66  C   UNL     1       2.463   3.551  11.157  1.00  0.00     0.198 C 
BRANCH  66  67
HETATM   67  O   UNL     1       3.189   3.750  12.364  1.00  0.00    -0.398 OA
HETATM   68  H   UNL     1       4.142   3.752  12.143  1.00  0.00     0.209 HD
ENDBRANCH  66  67
ENDBRANCH  61  66
BRANCH  63  69
HETATM   69  O   UNL     1       1.525   7.491   9.422  1.00  0.00    -0.349 OA
BRANCH  69  70
HETATM   70  C   UNL     1       0.733   6.996   8.333  1.00  0.00     0.186 C 
HETATM   71  C   UNL     1      -0.290   8.045   7.832  1.00  0.00     0.176 C 
HETATM   72  O   UNL     1      -0.458   8.008   6.388  1.00  0.00    -0.379 OA
HETATM   73  C   UNL     1      -0.492   6.680   5.849  1.00  0.00     0.196 C 
HETATM   74  C   UNL     1       0.858   5.963   6.034  1.00  0.00     0.139 C 
HETATM   75  C   UNL     1       1.673   6.623   7.161  1.00  0.00     0.174 C 
BRANCH  71  76
HETATM   76  C   UNL     1      -1.676   7.911   8.476  1.00  0.00     0.198 C 
BRANCH  76  77
HETATM   77  O   UNL     1      -1.697   6.787   9.356  1.00  0.00    -0.398 OA
HETATM   78  H   UNL     1      -2.514   6.865   9.886  1.00  0.00     0.209 HD
ENDBRANCH  76  77
ENDBRANCH  71  76
BRANCH  74  79
HETATM   79  N   UNL     1       1.619   5.945   4.783  1.00  0.00    -0.348 N 
HETATM   80  C   UNL     1       1.406   5.008   3.810  1.00  0.00     0.241 C 
HETATM   81  O   UNL     1       0.589   4.100   3.895  1.00  0.00    -0.269 OA
HETATM   82  H   UNL     1       2.422   6.561   4.732  1.00  0.00     0.163 HD
BRANCH  80  83
HETATM   83  C   UNL     1       2.239   5.220   2.606  1.00  0.00     0.080 C 
HETATM   84  C   UNL     1       2.564   6.470   2.251  1.00  0.00     0.086 C 
BRANCH  84  85
HETATM   85  C   UNL     1       3.477   6.676   1.126  1.00  0.00     0.165 C 
HETATM   86  O   UNL     1       3.183   6.778  -0.049  1.00  0.00    -0.647 OA
BRANCH  85  87
HETATM   87  O   UNL     1       4.747   6.723   1.557  1.00  0.00    -0.773 OA
HETATM   88  H   UNL     1       5.069   5.803   1.459  1.00  0.00     0.167 HD
ENDBRANCH  85  87
ENDBRANCH  84  85
ENDBRANCH  80  83
ENDBRANCH  74  79
BRANCH  75  89
HETATM   89  O   UNL     1       2.365   7.778   6.649  1.00  0.00    -0.391 OA
HETATM   90  H   UNL     1       2.196   8.526   7.250  1.00  0.00     0.210 HD
ENDBRANCH  75  89
ENDBRANCH  69  70
ENDBRANCH  63  69
BRANCH  64  91
HETATM   91  N   UNL     1       1.705   8.533  12.085  1.00  0.00    -0.247 NA
HETATM   92  C   UNL     1       0.584   9.297  12.266  1.00  0.00     0.221 C 
HETATM   93  O   UNL     1       0.348   9.746  13.385  1.00  0.00    -0.275 OA
HETATM   94  H   UNL     1       2.246   8.702  12.925  1.00  0.00     0.131 HD
BRANCH  92  95
HETATM   95  C   UNL     1      -0.087   9.792  11.056  1.00  0.00     0.074 C 
HETATM   96  C   UNL     1       0.406  10.942  10.569  1.00  0.00     0.086 C 
BRANCH  96  97
HETATM   97  C   UNL     1      -0.078  11.520   9.318  1.00  0.00     0.165 C 
HETATM   98  O   UNL     1       0.549  12.159   8.493  1.00  0.00    -0.647 OA
BRANCH  97  99
HETATM   99  O   UNL     1      -1.390  11.268   9.182  1.00  0.00    -0.773 OA
HETATM  100  H   UNL     1      -1.813  12.143   9.305  1.00  0.00     0.167 HD
ENDBRANCH  97  99
ENDBRANCH  96  97
ENDBRANCH  92  95
ENDBRANCH  64  91
BRANCH  65 101
HETATM  101  O   UNL     1      -0.777   6.575  11.891  1.00  0.00    -0.391 OA
HETATM  102  H   UNL     1      -1.378   6.997  12.536  1.00  0.00     0.210 HD
ENDBRANCH  65 101
ENDBRANCH  59  60
ENDBRANCH   5  59
TORSDOF 40
ENDMDL
MODEL 8
REMARK VINA RESULT:      -7.9      3.561     14.864
REMARK WARNING: 32 MAX_TORS EXCEEDED!!!
REMARK  40 active torsions:
REMARK  status: ('A' for Active; 'I' for Inactive)
REMARK    1  A    between atoms: C_1  and  O_44 
REMARK    2  A    between atoms: C_2  and  C_6 
REMARK    3  A    between atoms: C_3  and  O_10 
REMARK    4  A    between atoms: C_4  and  N_12 
REMARK    5  A    between atoms: C_5  and  O_14 
REMARK    6  A    between atoms: C_6  and  O_7 
REMARK    7  A    between atoms: O_14  and  C_27 
REMARK    8  A    between atoms: O_16  and  C_21 
REMARK    9  A    between atoms: C_18  and  C_33 
REMARK   10  A    between atoms: O_20  and  C_33 
REMARK   11  A    between atoms: O_22  and  C_30 
REMARK   12  A    between atoms: O_22  and  C_70 
REMARK   13  A    between atoms: O_23  and  C_24 
REMARK   14  A    between atoms: C_24  and  C_28 
REMARK       I    between atoms: N_29  and  C_32 
REMARK   15  A    between atoms: N_29  and  C_35 
REMARK   16  A    between atoms: C_31  and  C_32 
REMARK   17  A    between atoms: O_38  and  C_43 
REMARK   18  A    between atoms: C_40  and  C_55 
REMARK   19  A    between atoms: O_42  and  C_55 
REMARK   20  A    between atoms: O_44  and  C_52 
REMARK   21  A    between atoms: O_45  and  C_46 
REMARK   22  A    between atoms: C_46  and  C_50 
REMARK   23  A    between atoms: C_49  and  O_87 
REMARK       I    between atoms: N_51  and  C_54 
REMARK   24  A    between atoms: N_51  and  C_57 
REMARK   25  A    between atoms: C_53  and  C_54 
REMARK   26  A    between atoms: O_60  and  C_65 
REMARK   27  A    between atoms: C_62  and  C_76 
REMARK   28  A    between atoms: O_64  and  C_76 
REMARK   29  A    between atoms: O_66  and  C_67 
REMARK   30  A    between atoms: C_67  and  C_71 
REMARK       I    between atoms: N_72  and  C_75 
REMARK   31  A    between atoms: N_72  and  C_78 
REMARK   32  A    between atoms: C_74  and  C_75 
REMARK   33  A    between atoms: O_81  and  C_86 
REMARK   34  A    between atoms: C_83  and  C_98 
REMARK   35  A    between atoms: O_85  and  C_98 
REMARK   36  A    between atoms: O_87  and  C_95 
REMARK   37  A    between atoms: O_88  and  C_89 
REMARK   38  A    between atoms: C_89  and  C_93 
REMARK       I    between atoms: N_94  and  C_97 
REMARK   39  A    between atoms: N_94  and  C_100 
REMARK   40  A    between atoms: C_96  and  C_97 
ROOT
HETATM    1  C   UNL     1       0.656   0.820  16.156  1.00  0.00     0.186 C 
HETATM    2  C   UNL     1       1.367   0.565  14.805  1.00  0.00     0.179 C 
HETATM    3  C   UNL     1      -0.175   2.118  16.083  1.00  0.00     0.187 C 
HETATM    4  C   UNL     1       0.740   3.261  15.585  1.00  0.00     0.303 C 
HETATM    5  C   UNL     1       1.289   2.919  14.155  1.00  0.00     0.296 C 
HETATM    6  O   UNL     1       1.047   1.553  13.798  1.00  0.00    -0.349 OA
ENDROOT
BRANCH   1   7
HETATM    7  O   UNL     1      -0.198  -0.290  16.481  1.00  0.00    -0.348 OA
BRANCH   7   8
HETATM    8  C   UNL     1      -0.330  -1.293  15.465  1.00  0.00     0.286 C 
HETATM    9  O   UNL     1      -1.719  -1.640  15.400  1.00  0.00    -0.349 OA
HETATM   10  C   UNL     1      -2.058  -2.625  14.405  1.00  0.00     0.180 C 
HETATM   11  C   UNL     1      -1.197  -3.906  14.487  1.00  0.00     0.186 C 
HETATM   12  C   UNL     1      -0.268  -3.848  15.712  1.00  0.00     0.177 C 
HETATM   13  C   UNL     1       0.546  -2.547  15.772  1.00  0.00     0.171 C 
BRANCH  10  14
HETATM   14  C   UNL     1      -2.028  -2.005  13.000  1.00  0.00     0.198 C 
BRANCH  14  15
HETATM   15  O   UNL     1      -1.674  -2.974  12.017  1.00  0.00    -0.398 OA
HETATM   16  H   UNL     1      -2.475  -3.490  11.801  1.00  0.00     0.209 HD
ENDBRANCH  14  15
ENDBRANCH  10  14
BRANCH  11  17
HETATM   17  O   UNL     1      -2.083  -5.024  14.648  1.00  0.00    -0.348 OA
BRANCH  17  18
HETATM   18  C   UNL     1      -1.826  -6.180  13.845  1.00  0.00     0.286 C 
HETATM   19  O   UNL     1      -2.353  -5.907  12.552  1.00  0.00    -0.352 OA
HETATM   20  C   UNL     1      -2.133  -6.942  11.577  1.00  0.00     0.150 C 
HETATM   21  C   UNL     1      -2.106  -8.356  12.166  1.00  0.00     0.068 C 
HETATM   22  C   UNL     1      -2.977  -8.442  13.406  1.00  0.00     0.148 C 
HETATM   23  C   UNL     1      -2.470  -7.453  14.477  1.00  0.00     0.168 C 
BRANCH  20  24
HETATM   24  C   UNL     1      -0.848  -6.629  10.798  1.00  0.00     0.196 C 
BRANCH  24  25
HETATM   25  O   UNL     1      -0.884  -5.293  10.307  1.00  0.00    -0.398 OA
HETATM   26  H   UNL     1      -0.882  -5.358   9.331  1.00  0.00     0.209 HD
ENDBRANCH  24  25
ENDBRANCH  20  24
BRANCH  22  27
HETATM   27  O   UNL     1      -4.328  -8.164  13.028  1.00  0.00    -0.393 OA
HETATM   28  H   UNL     1      -4.883  -8.467  13.771  1.00  0.00     0.210 HD
ENDBRANCH  22  27
BRANCH  23  29
HETATM   29  N   UNL     1      -3.509  -7.149  15.470  1.00  0.00    -0.346 N 
HETATM   30  C   UNL     1      -3.151  -6.821  16.754  1.00  0.00     0.241 C 
HETATM   31  O   UNL     1      -2.034  -7.021  17.212  1.00  0.00    -0.269 OA
HETATM   32  H   UNL     1      -4.413  -6.862  15.097  1.00  0.00     0.163 HD
BRANCH  30  33
HETATM   33  C   UNL     1      -4.198  -6.081  17.486  1.00  0.00     0.080 C 
HETATM   34  C   UNL     1      -4.388  -4.790  17.181  1.00  0.00     0.086 C 
BRANCH  34  35
HETATM   35  C   UNL     1      -5.517  -4.071  17.772  1.00  0.00     0.165 C 
HETATM   36  O   UNL     1      -5.781  -2.892  17.650  1.00  0.00    -0.647 OA
BRANCH  35  37
HETATM   37  O   UNL     1      -6.247  -4.901  18.532  1.00  0.00    -0.773 OA
HETATM   38  H   UNL     1      -5.957  -4.712  19.448  1.00  0.00     0.167 HD
ENDBRANCH  35  37
ENDBRANCH  34  35
ENDBRANCH  30  33
ENDBRANCH  23  29
ENDBRANCH  17  18
ENDBRANCH  11  17
BRANCH  12  39
HETATM   39  O   UNL     1      -1.008  -4.043  16.933  1.00  0.00    -0.391 OA
HETATM   40  H   UNL     1      -1.924  -4.283  16.688  1.00  0.00     0.210 HD
ENDBRANCH  12  39
BRANCH  13  41
HETATM   41  N   UNL     1       1.257  -2.482  17.048  1.00  0.00    -0.346 N 
HETATM   42  C   UNL     1       2.594  -2.747  17.153  1.00  0.00     0.241 C 
HETATM   43  O   UNL     1       3.272  -3.181  16.230  1.00  0.00    -0.269 OA
HETATM   44  H   UNL     1       0.769  -2.034  17.815  1.00  0.00     0.163 HD
BRANCH  42  45
HETATM   45  C   UNL     1       3.140  -2.443  18.490  1.00  0.00     0.080 C 
HETATM   46  C   UNL     1       4.212  -3.114  18.928  1.00  0.00     0.086 C 
BRANCH  46  47
HETATM   47  C   UNL     1       4.774  -2.774  20.235  1.00  0.00     0.165 C 
HETATM   48  O   UNL     1       4.845  -3.488  21.217  1.00  0.00    -0.647 OA
BRANCH  47  49
HETATM   49  O   UNL     1       5.245  -1.518  20.229  1.00  0.00    -0.773 OA
HETATM   50  H   UNL     1       6.194  -1.621  20.012  1.00  0.00     0.167 HD
ENDBRANCH  47  49
ENDBRANCH  46  47
ENDBRANCH  42  45
ENDBRANCH  13  41
ENDBRANCH   7   8
ENDBRANCH   1   7
BRANCH   2  51
HETATM   51  C   UNL     1       2.891   0.468  14.978  1.00  0.00     0.198 C 
BRANCH  51  52
HETATM   52  O   UNL     1       3.558   1.400  14.133  1.00  0.00    -0.398 OA
HETATM   53  H   UNL     1       4.349   0.960  13.764  1.00  0.00     0.209 HD
ENDBRANCH  51  52
ENDBRANCH   2  51
BRANCH   3  54
HETATM   54  O   UNL     1      -1.328   1.979  15.238  1.00  0.00    -0.391 OA
HETATM   55  H   UNL     1      -1.013   1.831  14.325  1.00  0.00     0.210 HD
ENDBRANCH   3  54
BRANCH   4  56
HETATM   56  N   UNL     1       0.058   4.559  15.723  1.00  0.00     0.090 N 
HETATM   57  H   UNL     1       0.287   5.013  16.599  1.00  0.00     0.313 HD
HETATM   58  H   UNL     1       0.390   5.168  14.967  1.00  0.00     0.313 HD
ENDBRANCH   4  56
BRANCH   5  59
HETATM   59  O   UNL     1       0.649   3.731  13.152  1.00  0.00    -0.348 OA
BRANCH  59  60
HETATM   60  C   UNL     1       1.526   4.633  12.452  1.00  0.00     0.186 C 
HETATM   61  C   UNL     1       1.994   4.062  11.087  1.00  0.00     0.179 C 
HETATM   62  O   UNL     1       1.772   4.930   9.955  1.00  0.00    -0.349 OA
HETATM   63  C   UNL     1       2.127   6.310  10.096  1.00  0.00     0.281 C 
HETATM   64  C   UNL     1       1.722   6.905  11.476  1.00  0.00     0.149 C 
HETATM   65  C   UNL     1       0.783   5.968  12.258  1.00  0.00     0.172 C 
BRANCH  61  66
HETATM   66  C   UNL     1       3.482   3.679  11.116  1.00  0.00     0.198 C 
BRANCH  66  67
HETATM   67  O   UNL     1       4.025   3.861  12.419  1.00  0.00    -0.398 OA
HETATM   68  H   UNL     1       3.756   3.096  12.965  1.00  0.00     0.209 HD
ENDBRANCH  66  67
ENDBRANCH  61  66
BRANCH  63  69
HETATM   69  O   UNL     1       1.548   7.032   9.011  1.00  0.00    -0.349 OA
BRANCH  69  70
HETATM   70  C   UNL     1       1.209   6.256   7.853  1.00  0.00     0.186 C 
HETATM   71  C   UNL     1      -0.164   6.662   7.261  1.00  0.00     0.176 C 
HETATM   72  O   UNL     1      -0.176   6.615   5.809  1.00  0.00    -0.379 OA
HETATM   73  C   UNL     1       0.516   5.484   5.265  1.00  0.00     0.196 C 
HETATM   74  C   UNL     1       2.024   5.546   5.572  1.00  0.00     0.139 C 
HETATM   75  C   UNL     1       2.295   6.473   6.771  1.00  0.00     0.174 C 
BRANCH  71  76
HETATM   76  C   UNL     1      -1.331   5.808   7.775  1.00  0.00     0.198 C 
BRANCH  76  77
HETATM   77  O   UNL     1      -0.896   4.992   8.862  1.00  0.00    -0.398 OA
HETATM   78  H   UNL     1      -0.753   4.097   8.496  1.00  0.00     0.209 HD
ENDBRANCH  76  77
ENDBRANCH  71  76
BRANCH  74  79
HETATM   79  N   UNL     1       2.782   5.980   4.397  1.00  0.00    -0.348 N 
HETATM   80  C   UNL     1       4.118   5.725   4.253  1.00  0.00     0.241 C 
HETATM   81  O   UNL     1       4.801   5.140   5.083  1.00  0.00    -0.269 OA
HETATM   82  H   UNL     1       2.312   6.616   3.763  1.00  0.00     0.163 HD
BRANCH  80  83
HETATM   83  C   UNL     1       4.663   6.195   2.961  1.00  0.00     0.080 C 
HETATM   84  C   UNL     1       4.119   5.746   1.822  1.00  0.00     0.086 C 
BRANCH  84  85
HETATM   85  C   UNL     1       4.584   6.292   0.546  1.00  0.00     0.165 C 
HETATM   86  O   UNL     1       3.958   6.364  -0.493  1.00  0.00    -0.647 OA
BRANCH  85  87
HETATM   87  O   UNL     1       5.855   6.709   0.652  1.00  0.00    -0.773 OA
HETATM   88  H   UNL     1       6.295   6.010   1.181  1.00  0.00     0.167 HD
ENDBRANCH  85  87
ENDBRANCH  84  85
ENDBRANCH  80  83
ENDBRANCH  74  79
BRANCH  75  89
HETATM   89  O   UNL     1       2.336   7.843   6.328  1.00  0.00    -0.391 OA
HETATM   90  H   UNL     1       1.594   7.986   5.711  1.00  0.00     0.210 HD
ENDBRANCH  75  89
ENDBRANCH  69  70
ENDBRANCH  63  69
BRANCH  64  91
HETATM   91  N   UNL     1       1.403   8.342  11.555  1.00  0.00    -0.247 NA
HETATM   92  C   UNL     1       0.113   8.800  11.516  1.00  0.00     0.221 C 
HETATM   93  O   UNL     1      -0.387   9.249  12.543  1.00  0.00    -0.275 OA
HETATM   94  H   UNL     1       1.756   8.704  12.433  1.00  0.00     0.131 HD
BRANCH  92  95
HETATM   95  C   UNL     1      -0.475   9.018  10.186  1.00  0.00     0.074 C 
HETATM   96  C   UNL     1       0.134   9.959   9.449  1.00  0.00     0.086 C 
BRANCH  96  97
HETATM   97  C   UNL     1      -0.259  10.231   8.068  1.00  0.00     0.165 C 
HETATM   98  O   UNL     1       0.415  10.130   7.060  1.00  0.00    -0.647 OA
BRANCH  97  99
HETATM   99  O   UNL     1      -1.532  10.656   8.037  1.00  0.00    -0.773 OA
HETATM  100  H   UNL     1      -1.829  10.582   8.968  1.00  0.00     0.167 HD
ENDBRANCH  97  99
ENDBRANCH  96  97
ENDBRANCH  92  95
ENDBRANCH  64  91
BRANCH  65 101
HETATM  101  O   UNL     1      -0.461   5.781  11.587  1.00  0.00    -0.391 OA
HETATM  102  H   UNL     1      -0.294   5.914  10.633  1.00  0.00     0.210 HD
ENDBRANCH  65 101
ENDBRANCH  59  60
ENDBRANCH   5  59
TORSDOF 40
ENDMDL
MODEL 9
REMARK VINA RESULT:      -7.5      4.232      6.381
REMARK WARNING: 32 MAX_TORS EXCEEDED!!!
REMARK  40 active torsions:
REMARK  status: ('A' for Active; 'I' for Inactive)
REMARK    1  A    between atoms: C_1  and  O_44 
REMARK    2  A    between atoms: C_2  and  C_6 
REMARK    3  A    between atoms: C_3  and  O_10 
REMARK    4  A    between atoms: C_4  and  N_12 
REMARK    5  A    between atoms: C_5  and  O_14 
REMARK    6  A    between atoms: C_6  and  O_7 
REMARK    7  A    between atoms: O_14  and  C_27 
REMARK    8  A    between atoms: O_16  and  C_21 
REMARK    9  A    between atoms: C_18  and  C_33 
REMARK   10  A    between atoms: O_20  and  C_33 
REMARK   11  A    between atoms: O_22  and  C_30 
REMARK   12  A    between atoms: O_22  and  C_70 
REMARK   13  A    between atoms: O_23  and  C_24 
REMARK   14  A    between atoms: C_24  and  C_28 
REMARK       I    between atoms: N_29  and  C_32 
REMARK   15  A    between atoms: N_29  and  C_35 
REMARK   16  A    between atoms: C_31  and  C_32 
REMARK   17  A    between atoms: O_38  and  C_43 
REMARK   18  A    between atoms: C_40  and  C_55 
REMARK   19  A    between atoms: O_42  and  C_55 
REMARK   20  A    between atoms: O_44  and  C_52 
REMARK   21  A    between atoms: O_45  and  C_46 
REMARK   22  A    between atoms: C_46  and  C_50 
REMARK   23  A    between atoms: C_49  and  O_87 
REMARK       I    between atoms: N_51  and  C_54 
REMARK   24  A    between atoms: N_51  and  C_57 
REMARK   25  A    between atoms: C_53  and  C_54 
REMARK   26  A    between atoms: O_60  and  C_65 
REMARK   27  A    between atoms: C_62  and  C_76 
REMARK   28  A    between atoms: O_64  and  C_76 
REMARK   29  A    between atoms: O_66  and  C_67 
REMARK   30  A    between atoms: C_67  and  C_71 
REMARK       I    between atoms: N_72  and  C_75 
REMARK   31  A    between atoms: N_72  and  C_78 
REMARK   32  A    between atoms: C_74  and  C_75 
REMARK   33  A    between atoms: O_81  and  C_86 
REMARK   34  A    between atoms: C_83  and  C_98 
REMARK   35  A    between atoms: O_85  and  C_98 
REMARK   36  A    between atoms: O_87  and  C_95 
REMARK   37  A    between atoms: O_88  and  C_89 
REMARK   38  A    between atoms: C_89  and  C_93 
REMARK       I    between atoms: N_94  and  C_97 
REMARK   39  A    between atoms: N_94  and  C_100 
REMARK   40  A    between atoms: C_96  and  C_97 
ROOT
HETATM    1  C   UNL     1       1.343   5.457   9.371  1.00  0.00     0.186 C 
HETATM    2  C   UNL     1       2.515   6.164  10.095  1.00  0.00     0.179 C 
HETATM    3  C   UNL     1       0.233   5.099  10.380  1.00  0.00     0.187 C 
HETATM    4  C   UNL     1       0.865   4.312  11.551  1.00  0.00     0.303 C 
HETATM    5  C   UNL     1       1.946   5.198  12.265  1.00  0.00     0.296 C 
HETATM    6  O   UNL     1       2.271   6.368  11.506  1.00  0.00    -0.349 OA
ENDROOT
BRANCH   1   7
HETATM    7  O   UNL     1       0.813   6.309   8.342  1.00  0.00    -0.348 OA
BRANCH   7   8
HETATM    8  C   UNL     1      -0.140   5.703   7.459  1.00  0.00     0.286 C 
HETATM    9  O   UNL     1       0.607   5.042   6.431  1.00  0.00    -0.349 OA
HETATM   10  C   UNL     1      -0.186   4.341   5.452  1.00  0.00     0.180 C 
HETATM   11  C   UNL     1      -1.297   5.210   4.823  1.00  0.00     0.186 C 
HETATM   12  C   UNL     1      -1.186   6.662   5.320  1.00  0.00     0.177 C 
HETATM   13  C   UNL     1      -1.118   6.755   6.852  1.00  0.00     0.171 C 
BRANCH  10  14
HETATM   14  C   UNL     1      -0.745   3.038   6.045  1.00  0.00     0.198 C 
BRANCH  14  15
HETATM   15  O   UNL     1      -2.105   3.195   6.437  1.00  0.00    -0.398 OA
HETATM   16  H   UNL     1      -2.577   3.652   5.715  1.00  0.00     0.209 HD
ENDBRANCH  14  15
ENDBRANCH  10  14
BRANCH  11  17
HETATM   17  O   UNL     1      -1.106   5.208   3.399  1.00  0.00    -0.348 OA
BRANCH  17  18
HETATM   18  C   UNL     1      -2.030   5.969   2.616  1.00  0.00     0.286 C 
HETATM   19  O   UNL     1      -2.842   5.033   1.916  1.00  0.00    -0.352 OA
HETATM   20  C   UNL     1      -3.884   5.618   1.112  1.00  0.00     0.150 C 
HETATM   21  C   UNL     1      -3.524   6.987   0.527  1.00  0.00     0.068 C 
HETATM   22  C   UNL     1      -2.027   7.103   0.304  1.00  0.00     0.148 C 
HETATM   23  C   UNL     1      -1.278   6.928   1.643  1.00  0.00     0.168 C 
BRANCH  20  24
HETATM   24  C   UNL     1      -5.176   5.678   1.938  1.00  0.00     0.196 C 
BRANCH  24  25
HETATM   25  O   UNL     1      -6.123   4.738   1.438  1.00  0.00    -0.398 OA
HETATM   26  H   UNL     1      -6.998   5.034   1.757  1.00  0.00     0.209 HD
ENDBRANCH  24  25
ENDBRANCH  20  24
BRANCH  22  27
HETATM   27  O   UNL     1      -1.636   6.114  -0.653  1.00  0.00    -0.393 OA
HETATM   28  H   UNL     1      -1.797   5.250  -0.228  1.00  0.00     0.210 HD
ENDBRANCH  22  27
BRANCH  23  29
HETATM   29  N   UNL     1       0.129   6.561   1.433  1.00  0.00    -0.346 N 
HETATM   30  C   UNL     1       0.940   7.372   0.678  1.00  0.00     0.241 C 
HETATM   31  O   UNL     1       0.513   8.250  -0.060  1.00  0.00    -0.269 OA
HETATM   32  H   UNL     1       0.531   5.921   2.116  1.00  0.00     0.163 HD
BRANCH  30  33
HETATM   33  C   UNL     1       2.379   7.177   0.945  1.00  0.00     0.080 C 
HETATM   34  C   UNL     1       2.729   6.354   1.942  1.00  0.00     0.086 C 
BRANCH  34  35
HETATM   35  C   UNL     1       4.140   6.017   2.134  1.00  0.00     0.165 C 
HETATM   36  O   UNL     1       4.914   6.518   2.924  1.00  0.00    -0.647 OA
BRANCH  35  37
HETATM   37  O   UNL     1       4.508   5.061   1.267  1.00  0.00    -0.773 OA
HETATM   38  H   UNL     1       4.549   4.245   1.808  1.00  0.00     0.167 HD
ENDBRANCH  35  37
ENDBRANCH  34  35
ENDBRANCH  30  33
ENDBRANCH  23  29
ENDBRANCH  17  18
ENDBRANCH  11  17
BRANCH  12  39
HETATM   39  O   UNL     1      -0.062   7.333   4.718  1.00  0.00    -0.391 OA
HETATM   40  H   UNL     1       0.578   6.646   4.442  1.00  0.00     0.210 HD
ENDBRANCH  12  39
BRANCH  13  41
HETATM   41  N   UNL     1      -0.828   8.135   7.237  1.00  0.00    -0.346 N 
HETATM   42  C   UNL     1      -1.282   8.677   8.407  1.00  0.00     0.241 C 
HETATM   43  O   UNL     1      -2.066   8.108   9.156  1.00  0.00    -0.269 OA
HETATM   44  H   UNL     1      -0.107   8.610   6.706  1.00  0.00     0.163 HD
BRANCH  42  45
HETATM   45  C   UNL     1      -0.719  10.015   8.681  1.00  0.00     0.080 C 
HETATM   46  C   UNL     1      -0.512  10.391   9.949  1.00  0.00     0.086 C 
BRANCH  46  47
HETATM   47  C   UNL     1       0.088  11.698  10.209  1.00  0.00     0.165 C 
HETATM   48  O   UNL     1       0.593  12.454   9.400  1.00  0.00    -0.647 OA
BRANCH  47  49
HETATM   49  O   UNL     1       0.006  12.000  11.514  1.00  0.00    -0.773 OA
HETATM   50  H   UNL     1       0.930  11.931  11.832  1.00  0.00     0.167 HD
ENDBRANCH  47  49
ENDBRANCH  46  47
ENDBRANCH  42  45
ENDBRANCH  13  41
ENDBRANCH   7   8
ENDBRANCH   1   7
BRANCH   2  51
HETATM   51  C   UNL     1       3.840   5.412   9.894  1.00  0.00     0.198 C 
BRANCH  51  52
HETATM   52  O   UNL     1       3.782   4.582   8.738  1.00  0.00    -0.398 OA
HETATM   53  H   UNL     1       3.690   5.159   7.956  1.00  0.00     0.209 HD
ENDBRANCH  51  52
ENDBRANCH   2  51
BRANCH   3  54
HETATM   54  O   UNL     1      -0.461   6.262  10.860  1.00  0.00    -0.391 OA
HETATM   55  H   UNL     1      -0.191   7.021  10.306  1.00  0.00     0.210 HD
ENDBRANCH   3  54
BRANCH   4  56
HETATM   56  N   UNL     1      -0.185   3.749  12.417  1.00  0.00     0.090 N 
HETATM   57  H   UNL     1      -1.073   3.679  11.934  1.00  0.00     0.313 HD
HETATM   58  H   UNL     1       0.099   2.799  12.676  1.00  0.00     0.313 HD
ENDBRANCH   4  56
BRANCH   5  59
HETATM   59  O   UNL     1       1.472   5.652  13.547  1.00  0.00    -0.348 OA
BRANCH  59  60
HETATM   60  C   UNL     1       0.641   6.828  13.504  1.00  0.00     0.186 C 
HETATM   61  C   UNL     1      -0.694   6.638  14.272  1.00  0.00     0.179 C 
HETATM   62  O   UNL     1      -0.976   7.649  15.262  1.00  0.00    -0.349 OA
HETATM   63  C   UNL     1      -0.775   9.017  14.890  1.00  0.00     0.281 C 
HETATM   64  C   UNL     1       0.529   9.240  14.070  1.00  0.00     0.149 C 
HETATM   65  C   UNL     1       1.445   8.003  14.091  1.00  0.00     0.172 C 
BRANCH  61  66
HETATM   66  C   UNL     1      -1.891   6.556  13.312  1.00  0.00     0.198 C 
BRANCH  66  67
HETATM   67  O   UNL     1      -2.729   5.455  13.643  1.00  0.00    -0.398 OA
HETATM   68  H   UNL     1      -3.374   5.342  12.917  1.00  0.00     0.209 HD
ENDBRANCH  66  67
ENDBRANCH  61  66
BRANCH  63  69
HETATM   69  O   UNL     1      -0.803   9.810  16.076  1.00  0.00    -0.349 OA
BRANCH  69  70
HETATM   70  C   UNL     1      -1.977  10.612  16.266  1.00  0.00     0.186 C 
HETATM   71  C   UNL     1      -2.709  10.898  14.931  1.00  0.00     0.176 C 
HETATM   72  O   UNL     1      -4.155  10.895  15.082  1.00  0.00    -0.379 OA
HETATM   73  C   UNL     1      -4.609  11.533  16.282  1.00  0.00     0.196 C 
HETATM   74  C   UNL     1      -4.153  10.762  17.535  1.00  0.00     0.139 C 
HETATM   75  C   UNL     1      -2.948   9.861  17.210  1.00  0.00     0.174 C 
BRANCH  71  76
HETATM   76  C   UNL     1      -2.302  12.226  14.278  1.00  0.00     0.198 C 
BRANCH  76  77
HETATM   77  O   UNL     1      -0.922  12.489  14.532  1.00  0.00    -0.398 OA
HETATM   78  H   UNL     1      -0.812  13.459  14.482  1.00  0.00     0.209 HD
ENDBRANCH  76  77
ENDBRANCH  71  76
BRANCH  74  79
HETATM   79  N   UNL     1      -5.253   9.977  18.097  1.00  0.00    -0.348 N 
HETATM   80  C   UNL     1      -5.614  10.060  19.414  1.00  0.00     0.241 C 
HETATM   81  O   UNL     1      -5.052  10.769  20.239  1.00  0.00    -0.269 OA
HETATM   82  H   UNL     1      -5.639   9.248  17.507  1.00  0.00     0.163 HD
BRANCH  80  83
HETATM   83  C   UNL     1      -6.792   9.230  19.748  1.00  0.00     0.080 C 
HETATM   84  C   UNL     1      -7.977   9.826  19.934  1.00  0.00     0.086 C 
BRANCH  84  85
HETATM   85  C   UNL     1      -9.164   8.998  20.156  1.00  0.00     0.165 C 
HETATM   86  O   UNL     1     -10.323   9.307  19.956  1.00  0.00    -0.647 OA
BRANCH  85  87
HETATM   87  O   UNL     1      -8.812   7.802  20.651  1.00  0.00    -0.773 OA
HETATM   88  H   UNL     1      -8.426   7.328  19.885  1.00  0.00     0.167 HD
ENDBRANCH  85  87
ENDBRANCH  84  85
ENDBRANCH  80  83
ENDBRANCH  74  79
BRANCH  75  89
HETATM   89  O   UNL     1      -3.406   8.627  16.626  1.00  0.00    -0.391 OA
HETATM   90  H   UNL     1      -2.630   8.058  16.468  1.00  0.00     0.210 HD
ENDBRANCH  75  89
ENDBRANCH  69  70
ENDBRANCH  63  69
BRANCH  64  91
HETATM   91  N   UNL     1       1.210  10.543  14.174  1.00  0.00    -0.247 NA
HETATM   92  C   UNL     1       2.467  10.744  13.671  1.00  0.00     0.221 C 
HETATM   93  O   UNL     1       2.598  11.436  12.664  1.00  0.00    -0.275 OA
HETATM   94  H   UNL     1       0.650  11.240  13.697  1.00  0.00     0.131 HD
BRANCH  92  95
HETATM   95  C   UNL     1       3.597  10.389  14.541  1.00  0.00     0.074 C 
HETATM   96  C   UNL     1       4.001  11.366  15.367  1.00  0.00     0.086 C 
BRANCH  96  97
HETATM   97  C   UNL     1       5.044  11.149  16.367  1.00  0.00     0.165 C 
HETATM   98  O   UNL     1       4.915  11.008  17.569  1.00  0.00    -0.647 OA
BRANCH  97  99
HETATM   99  O   UNL     1       6.247  11.144  15.770  1.00  0.00    -0.773 OA
HETATM  100  H   UNL     1       6.604  12.038  15.952  1.00  0.00     0.167 HD
ENDBRANCH  97  99
ENDBRANCH  96  97
ENDBRANCH  92  95
ENDBRANCH  64  91
BRANCH  65 101
HETATM  101  O   UNL     1       1.913   7.711  15.405  1.00  0.00    -0.391 OA
HETATM  102  H   UNL     1       1.797   8.522  15.937  1.00  0.00     0.210 HD
ENDBRANCH  65 101
ENDBRANCH  59  60
ENDBRANCH   5  59
TORSDOF 40
ENDMDL
