MODEL 1
REMARK VINA RESULT:      -8.5      0.000      0.000
REMARK WARNING: 32 MAX_TORS EXCEEDED!!!
REMARK  44 active torsions:
REMARK  status: ('A' for Active; 'I' for Inactive)
REMARK    1  A    between atoms: C_1  and  O_44 
REMARK    2  A    between atoms: C_2  and  C_6 
REMARK    3  A    between atoms: C_3  and  O_10 
REMARK    4  A    between atoms: C_4  and  N_12 
REMARK    5  A    between atoms: C_5  and  O_14 
REMARK    6  A    between atoms: C_6  and  O_7 
REMARK    7  A    between atoms: O_14  and  C_27 
REMARK    8  A    between atoms: O_16  and  C_21 
REMARK    9  A    between atoms: C_18  and  C_33 
REMARK   10  A    between atoms: O_20  and  C_33 
REMARK   11  A    between atoms: O_22  and  C_30 
REMARK   12  A    between atoms: O_22  and  C_70 
REMARK   13  A    between atoms: O_23  and  C_24 
REMARK   14  A    between atoms: C_24  and  C_28 
REMARK   15  A    between atoms: C_28  and  C_31 
REMARK       I    between atoms: N_29  and  C_32 
REMARK   16  A    between atoms: N_29  and  C_35 
REMARK   17  A    between atoms: C_31  and  C_32 
REMARK   18  A    between atoms: O_38  and  C_43 
REMARK   19  A    between atoms: C_40  and  C_55 
REMARK   20  A    between atoms: O_42  and  C_55 
REMARK   21  A    between atoms: O_44  and  C_52 
REMARK   22  A    between atoms: O_45  and  C_46 
REMARK   23  A    between atoms: C_46  and  C_50 
REMARK   24  A    between atoms: C_49  and  O_87 
REMARK   25  A    between atoms: C_50  and  C_53 
REMARK       I    between atoms: N_51  and  C_54 
REMARK   26  A    between atoms: N_51  and  C_57 
REMARK   27  A    between atoms: C_53  and  C_54 
REMARK   28  A    between atoms: O_60  and  C_65 
REMARK   29  A    between atoms: C_62  and  C_76 
REMARK   30  A    between atoms: O_64  and  C_76 
REMARK   31  A    between atoms: O_66  and  C_67 
REMARK   32  A    between atoms: C_67  and  C_71 
REMARK   33  A    between atoms: C_71  and  C_74 
REMARK       I    between atoms: N_72  and  C_75 
REMARK   34  A    between atoms: N_72  and  C_78 
REMARK   35  A    between atoms: C_74  and  C_75 
REMARK   36  A    between atoms: O_81  and  C_86 
REMARK   37  A    between atoms: C_83  and  C_98 
REMARK   38  A    between atoms: O_85  and  C_98 
REMARK   39  A    between atoms: O_87  and  C_95 
REMARK   40  A    between atoms: O_88  and  C_89 
REMARK   41  A    between atoms: C_89  and  C_93 
REMARK   42  A    between atoms: C_93  and  C_96 
REMARK       I    between atoms: N_94  and  C_97 
REMARK   43  A    between atoms: N_94  and  C_100 
REMARK   44  A    between atoms: C_96  and  C_97 
ROOT
ATOM      1  C   UNL     1       1.873   6.572   8.864  1.00  0.00     0.186 C 
ATOM      2  C   UNL     1       0.675   5.676   9.245  1.00  0.00     0.179 C 
ATOM      3  C   UNL     1       3.184   5.990   9.428  1.00  0.00     0.187 C 
ATOM      4  C   UNL     1       3.013   5.714  10.936  1.00  0.00     0.303 C 
ATOM      5  C   UNL     1       1.827   4.711  11.168  1.00  0.00     0.296 C 
ATOM      6  O   UNL     1       1.064   4.492   9.976  1.00  0.00    -0.349 OA
ENDROOT
BRANCH   1   7
ATOM      7  O   UNL     1       1.980   6.668   7.434  1.00  0.00    -0.348 OA
BRANCH   7   8
ATOM      8  C   UNL     1       0.869   6.148   6.695  1.00  0.00     0.286 C 
ATOM      9  O   UNL     1       1.412   5.363   5.628  1.00  0.00    -0.349 OA
ATOM     10  C   UNL     1       0.435   4.724   4.786  1.00  0.00     0.180 C 
ATOM     11  C   UNL     1      -0.632   5.699   4.237  1.00  0.00     0.186 C 
ATOM     12  C   UNL     1      -0.293   7.144   4.638  1.00  0.00     0.177 C 
ATOM     13  C   UNL     1      -0.037   7.292   6.144  1.00  0.00     0.170 C 
BRANCH  10  14
ATOM     14  C   UNL     1      -0.202   3.526   5.508  1.00  0.00     0.198 C 
BRANCH  14  15
ATOM     15  O   UNL     1      -1.599   3.724   5.705  1.00  0.00    -0.398 OA
ATOM     16  H   UNL     1      -1.777   4.684   5.673  1.00  0.00     0.209 HD
ENDBRANCH  14  15
ENDBRANCH  10  14
BRANCH  11  17
ATOM     17  O   UNL     1      -0.611   5.613   2.804  1.00  0.00    -0.348 OA
BRANCH  17  18
ATOM     18  C   UNL     1      -1.639   6.308   2.096  1.00  0.00     0.286 C 
ATOM     19  O   UNL     1      -2.589   5.331   1.687  1.00  0.00    -0.352 OA
ATOM     20  C   UNL     1      -3.763   5.866   1.049  1.00  0.00     0.150 C 
ATOM     21  C   UNL     1      -3.504   7.148   0.251  1.00  0.00     0.068 C 
ATOM     22  C   UNL     1      -2.082   7.172  -0.285  1.00  0.00     0.148 C 
ATOM     23  C   UNL     1      -1.069   7.099   0.879  1.00  0.00     0.168 C 
BRANCH  20  24
ATOM     24  C   UNL     1      -4.854   6.070   2.109  1.00  0.00     0.196 C 
BRANCH  24  25
ATOM     25  O   UNL     1      -5.890   5.105   1.940  1.00  0.00    -0.398 OA
ATOM     26  H   UNL     1      -6.693   5.607   1.693  1.00  0.00     0.209 HD
ENDBRANCH  24  25
ENDBRANCH  20  24
BRANCH  22  27
ATOM     27  O   UNL     1      -1.928   6.075  -1.191  1.00  0.00    -0.393 OA
ATOM     28  H   UNL     1      -2.163   5.274  -0.684  1.00  0.00     0.210 HD
ENDBRANCH  22  27
BRANCH  23  29
ATOM     29  N   UNL     1       0.243   6.621   0.418  1.00  0.00    -0.349 N 
ATOM     30  C   UNL     1       1.390   7.274   0.806  1.00  0.00     0.218 C 
ATOM     31  O   UNL     1       1.361   8.375   1.350  1.00  0.00    -0.274 OA
ATOM     32  H   UNL     1       0.290   5.662   0.074  1.00  0.00     0.163 HD
BRANCH  30  33
ATOM     33  C   UNL     1       2.673   6.527   0.517  1.00  0.00     0.113 C 
BRANCH  33  34
ATOM     34  C   UNL     1       3.745   6.909   1.535  1.00  0.00     0.119 C 
BRANCH  34  35
ATOM     35  C   UNL     1       4.939   6.003   1.455  1.00  0.00     0.139 C 
ATOM     36  O   UNL     1       5.025   4.857   1.855  1.00  0.00    -0.650 OA
BRANCH  35  37
ATOM     37  O   UNL     1       5.995   6.613   0.881  1.00  0.00    -0.776 OA
ATOM     38  H   UNL     1       5.599   7.327   0.337  1.00  0.00     0.167 HD
ENDBRANCH  35  37
ENDBRANCH  34  35
ENDBRANCH  33  34
ENDBRANCH  30  33
ENDBRANCH  23  29
ENDBRANCH  17  18
ENDBRANCH  11  17
BRANCH  12  39
ATOM     39  O   UNL     1       0.828   7.640   3.883  1.00  0.00    -0.391 OA
ATOM     40  H   UNL     1       1.429   8.091   4.506  1.00  0.00     0.210 HD
ENDBRANCH  12  39
BRANCH  13  41
ATOM     41  N   UNL     1       0.462   8.638   6.415  1.00  0.00    -0.349 N 
ATOM     42  C   UNL     1      -0.077   9.442   7.387  1.00  0.00     0.218 C 
ATOM     43  O   UNL     1      -1.113   9.154   7.979  1.00  0.00    -0.274 OA
ATOM     44  H   UNL     1       1.379   8.868   6.040  1.00  0.00     0.163 HD
BRANCH  42  45
ATOM     45  C   UNL     1       0.700  10.719   7.599  1.00  0.00     0.113 C 
BRANCH  45  46
ATOM     46  C   UNL     1      -0.168  11.813   8.200  1.00  0.00     0.119 C 
BRANCH  46  47
ATOM     47  C   UNL     1       0.019  11.883   9.688  1.00  0.00     0.139 C 
ATOM     48  O   UNL     1       0.627  12.731  10.318  1.00  0.00    -0.650 OA
BRANCH  47  49
ATOM     49  O   UNL     1      -0.607  10.874  10.326  1.00  0.00    -0.776 OA
ATOM     50  H   UNL     1      -1.552  11.133  10.314  1.00  0.00     0.167 HD
ENDBRANCH  47  49
ENDBRANCH  46  47
ENDBRANCH  45  46
ENDBRANCH  42  45
ENDBRANCH  13  41
ENDBRANCH   7   8
ENDBRANCH   1   7
BRANCH   2  51
ATOM     51  C   UNL     1      -0.388   6.459  10.034  1.00  0.00     0.198 C 
BRANCH  51  52
ATOM     52  O   UNL     1       0.069   7.774  10.335  1.00  0.00    -0.398 OA
ATOM     53  H   UNL     1       1.044   7.750  10.384  1.00  0.00     0.209 HD
ENDBRANCH  51  52
ENDBRANCH   2  51
BRANCH   3  54
ATOM     54  O   UNL     1       3.586   4.790   8.744  1.00  0.00    -0.391 OA
ATOM     55  H   UNL     1       4.006   5.057   7.903  1.00  0.00     0.210 HD
ENDBRANCH   3  54
BRANCH   4  56
ATOM     56  N   UNL     1       4.317   5.334  11.509  1.00  0.00     0.090 N 
ATOM     57  H   UNL     1       4.311   4.381  11.851  1.00  0.00     0.313 HD
ATOM     58  H   UNL     1       5.007   5.364  10.750  1.00  0.00     0.313 HD
ENDBRANCH   4  56
BRANCH   5  59
ATOM     59  O   UNL     1       2.315   3.424  11.593  1.00  0.00    -0.348 OA
BRANCH  59  60
ATOM     60  C   UNL     1       1.770   2.948  12.838  1.00  0.00     0.186 C 
ATOM     61  C   UNL     1       1.185   4.098  13.699  1.00  0.00     0.179 C 
ATOM     62  O   UNL     1      -0.176   3.897  14.134  1.00  0.00    -0.349 OA
ATOM     63  C   UNL     1      -0.520   2.611  14.660  1.00  0.00     0.281 C 
ATOM     64  C   UNL     1       0.073   1.433  13.836  1.00  0.00     0.149 C 
ATOM     65  C   UNL     1       0.687   1.904  12.507  1.00  0.00     0.172 C 
BRANCH  61  66
ATOM     66  C   UNL     1       2.051   4.374  14.939  1.00  0.00     0.198 C 
BRANCH  66  67
ATOM     67  O   UNL     1       3.135   3.455  15.011  1.00  0.00    -0.398 OA
ATOM     68  H   UNL     1       2.764   2.551  15.011  1.00  0.00     0.209 HD
ENDBRANCH  66  67
ENDBRANCH  61  66
BRANCH  63  69
ATOM     69  O   UNL     1      -1.939   2.536  14.745  1.00  0.00    -0.349 OA
BRANCH  69  70
ATOM     70  C   UNL     1      -2.495   2.582  16.064  1.00  0.00     0.186 C 
ATOM     71  C   UNL     1      -3.715   3.532  16.141  1.00  0.00     0.176 C 
ATOM     72  O   UNL     1      -4.759   3.021  17.010  1.00  0.00    -0.379 OA
ATOM     73  C   UNL     1      -4.263   2.419  18.212  1.00  0.00     0.196 C 
ATOM     74  C   UNL     1      -3.453   1.146  17.911  1.00  0.00     0.139 C 
ATOM     75  C   UNL     1      -2.939   1.154  16.458  1.00  0.00     0.174 C 
BRANCH  71  76
ATOM     76  C   UNL     1      -3.354   4.951  16.603  1.00  0.00     0.198 C 
BRANCH  76  77
ATOM     77  O   UNL     1      -2.104   5.343  16.039  1.00  0.00    -0.398 OA
ATOM     78  H   UNL     1      -2.260   5.477  15.084  1.00  0.00     0.209 HD
ENDBRANCH  76  77
ENDBRANCH  71  76
BRANCH  74  79
ATOM     79  N   UNL     1      -4.249  -0.057  18.154  1.00  0.00    -0.352 N 
ATOM     80  C   UNL     1      -3.697  -1.232  18.607  1.00  0.00     0.218 C 
ATOM     81  O   UNL     1      -2.515  -1.346  18.909  1.00  0.00    -0.274 OA
ATOM     82  H   UNL     1      -5.161  -0.085  17.708  1.00  0.00     0.163 HD
BRANCH  80  83
ATOM     83  C   UNL     1      -4.708  -2.350  18.731  1.00  0.00     0.113 C 
BRANCH  83  84
ATOM     84  C   UNL     1      -5.447  -2.593  17.422  1.00  0.00     0.119 C 
BRANCH  84  85
ATOM     85  C   UNL     1      -4.518  -3.123  16.371  1.00  0.00     0.139 C 
ATOM     86  O   UNL     1      -4.140  -4.274  16.233  1.00  0.00    -0.650 OA
BRANCH  85  87
ATOM     87  O   UNL     1      -4.098  -2.157  15.532  1.00  0.00    -0.776 OA
ATOM     88  H   UNL     1      -3.282  -2.522  15.130  1.00  0.00     0.167 HD
ENDBRANCH  85  87
ENDBRANCH  84  85
ENDBRANCH  83  84
ENDBRANCH  80  83
ENDBRANCH  74  79
BRANCH  75  89
ATOM     89  O   UNL     1      -3.970   0.651  15.583  1.00  0.00    -0.391 OA
ATOM     90  H   UNL     1      -4.821   0.703  16.057  1.00  0.00     0.210 HD
ENDBRANCH  75  89
ENDBRANCH  69  70
ENDBRANCH  63  69
BRANCH  64  91
ATOM     91  N   UNL     1      -0.659   0.155  13.784  1.00  0.00    -0.251 NA
ATOM     92  C   UNL     1      -0.399  -0.883  14.638  1.00  0.00     0.198 C 
ATOM     93  O   UNL     1      -1.289  -1.187  15.434  1.00  0.00    -0.280 OA
ATOM     94  H   UNL     1      -1.652   0.326  13.903  1.00  0.00     0.131 HD
BRANCH  92  95
ATOM     95  C   UNL     1       0.852  -1.709  14.478  1.00  0.00     0.107 C 
BRANCH  95  96
ATOM     96  C   UNL     1       1.934  -1.046  15.331  1.00  0.00     0.118 C 
BRANCH  96  97
ATOM     97  C   UNL     1       3.164  -0.690  14.555  1.00  0.00     0.139 C 
ATOM     98  O   UNL     1       3.769  -1.383  13.754  1.00  0.00    -0.650 OA
BRANCH  97  99
ATOM     99  O   UNL     1       3.540   0.588  14.773  1.00  0.00    -0.776 OA
ATOM    100  H   UNL     1       4.517   0.542  14.824  1.00  0.00     0.167 HD
ENDBRANCH  97  99
ENDBRANCH  96  97
ENDBRANCH  95  96
ENDBRANCH  92  95
ENDBRANCH  64  91
BRANCH  65 101
ATOM    101  O   UNL     1      -0.294   2.437  11.621  1.00  0.00    -0.391 OA
ATOM    102  H   UNL     1      -1.074   1.851  11.676  1.00  0.00     0.210 HD
ENDBRANCH  65 101
ENDBRANCH  59  60
ENDBRANCH   5  59
TORSDOF 44
ENDMDL
MODEL 2
REMARK VINA RESULT:      -8.3      2.415     13.762
REMARK WARNING: 32 MAX_TORS EXCEEDED!!!
REMARK  44 active torsions:
REMARK  status: ('A' for Active; 'I' for Inactive)
REMARK    1  A    between atoms: C_1  and  O_44 
REMARK    2  A    between atoms: C_2  and  C_6 
REMARK    3  A    between atoms: C_3  and  O_10 
REMARK    4  A    between atoms: C_4  and  N_12 
REMARK    5  A    between atoms: C_5  and  O_14 
REMARK    6  A    between atoms: C_6  and  O_7 
REMARK    7  A    between atoms: O_14  and  C_27 
REMARK    8  A    between atoms: O_16  and  C_21 
REMARK    9  A    between atoms: C_18  and  C_33 
REMARK   10  A    between atoms: O_20  and  C_33 
REMARK   11  A    between atoms: O_22  and  C_30 
REMARK   12  A    between atoms: O_22  and  C_70 
REMARK   13  A    between atoms: O_23  and  C_24 
REMARK   14  A    between atoms: C_24  and  C_28 
REMARK   15  A    between atoms: C_28  and  C_31 
REMARK       I    between atoms: N_29  and  C_32 
REMARK   16  A    between atoms: N_29  and  C_35 
REMARK   17  A    between atoms: C_31  and  C_32 
REMARK   18  A    between atoms: O_38  and  C_43 
REMARK   19  A    between atoms: C_40  and  C_55 
REMARK   20  A    between atoms: O_42  and  C_55 
REMARK   21  A    between atoms: O_44  and  C_52 
REMARK   22  A    between atoms: O_45  and  C_46 
REMARK   23  A    between atoms: C_46  and  C_50 
REMARK   24  A    between atoms: C_49  and  O_87 
REMARK   25  A    between atoms: C_50  and  C_53 
REMARK       I    between atoms: N_51  and  C_54 
REMARK   26  A    between atoms: N_51  and  C_57 
REMARK   27  A    between atoms: C_53  and  C_54 
REMARK   28  A    between atoms: O_60  and  C_65 
REMARK   29  A    between atoms: C_62  and  C_76 
REMARK   30  A    between atoms: O_64  and  C_76 
REMARK   31  A    between atoms: O_66  and  C_67 
REMARK   32  A    between atoms: C_67  and  C_71 
REMARK   33  A    between atoms: C_71  and  C_74 
REMARK       I    between atoms: N_72  and  C_75 
REMARK   34  A    between atoms: N_72  and  C_78 
REMARK   35  A    between atoms: C_74  and  C_75 
REMARK   36  A    between atoms: O_81  and  C_86 
REMARK   37  A    between atoms: C_83  and  C_98 
REMARK   38  A    between atoms: O_85  and  C_98 
REMARK   39  A    between atoms: O_87  and  C_95 
REMARK   40  A    between atoms: O_88  and  C_89 
REMARK   41  A    between atoms: C_89  and  C_93 
REMARK   42  A    between atoms: C_93  and  C_96 
REMARK       I    between atoms: N_94  and  C_97 
REMARK   43  A    between atoms: N_94  and  C_100 
REMARK   44  A    between atoms: C_96  and  C_97 
ROOT
ATOM      1  C   UNL     1       1.206   7.187  11.833  1.00  0.00     0.186 C 
ATOM      2  C   UNL     1       1.507   6.047  10.836  1.00  0.00     0.179 C 
ATOM      3  C   UNL     1      -0.153   7.839  11.513  1.00  0.00     0.187 C 
ATOM      4  C   UNL     1      -0.193   8.232  10.022  1.00  0.00     0.303 C 
ATOM      5  C   UNL     1       0.027   6.962   9.125  1.00  0.00     0.296 C 
ATOM      6  O   UNL     1       0.437   5.823   9.892  1.00  0.00    -0.349 OA
ENDROOT
BRANCH   1   7
ATOM      7  O   UNL     1       1.174   6.672  13.174  1.00  0.00    -0.348 OA
BRANCH   7   8
ATOM      8  C   UNL     1       1.340   5.254  13.296  1.00  0.00     0.286 C 
ATOM      9  O   UNL     1       0.037   4.702  13.509  1.00  0.00    -0.349 OA
ATOM     10  C   UNL     1      -0.004   3.267  13.622  1.00  0.00     0.180 C 
ATOM     11  C   UNL     1       0.987   2.708  14.670  1.00  0.00     0.186 C 
ATOM     12  C   UNL     1       1.678   3.857  15.419  1.00  0.00     0.177 C 
ATOM     13  C   UNL     1       2.302   4.889  14.468  1.00  0.00     0.170 C 
BRANCH  10  14
ATOM     14  C   UNL     1       0.185   2.609  12.247  1.00  0.00     0.198 C 
BRANCH  14  15
ATOM     15  O   UNL     1      -0.562   1.399  12.146  1.00  0.00    -0.398 OA
ATOM     16  H   UNL     1      -0.011   0.741  11.679  1.00  0.00     0.209 HD
ENDBRANCH  14  15
ENDBRANCH  10  14
BRANCH  11  17
ATOM     17  O   UNL     1       0.234   1.939  15.620  1.00  0.00    -0.348 OA
BRANCH  17  18
ATOM     18  C   UNL     1       0.313   0.516  15.513  1.00  0.00     0.286 C 
ATOM     19  O   UNL     1       1.138   0.234  14.389  1.00  0.00    -0.352 OA
ATOM     20  C   UNL     1       1.424  -1.163  14.190  1.00  0.00     0.150 C 
ATOM     21  C   UNL     1       0.294  -2.096  14.638  1.00  0.00     0.068 C 
ATOM     22  C   UNL     1      -1.056  -1.412  14.502  1.00  0.00     0.148 C 
ATOM     23  C   UNL     1      -1.098  -0.132  15.367  1.00  0.00     0.168 C 
BRANCH  20  24
ATOM     24  C   UNL     1       2.748  -1.502  14.889  1.00  0.00     0.196 C 
BRANCH  24  25
ATOM     25  O   UNL     1       3.616  -0.372  14.872  1.00  0.00    -0.398 OA
ATOM     26  H   UNL     1       4.122  -0.402  15.709  1.00  0.00     0.209 HD
ENDBRANCH  24  25
ENDBRANCH  20  24
BRANCH  22  27
ATOM     27  O   UNL     1      -1.272  -1.123  13.117  1.00  0.00    -0.393 OA
ATOM     28  H   UNL     1      -0.423  -0.782  12.778  1.00  0.00     0.210 HD
ENDBRANCH  22  27
BRANCH  23  29
ATOM     29  N   UNL     1      -2.136   0.798  14.896  1.00  0.00    -0.349 N 
ATOM     30  C   UNL     1      -3.149   1.186  15.742  1.00  0.00     0.218 C 
ATOM     31  O   UNL     1      -3.354   0.623  16.814  1.00  0.00    -0.274 OA
ATOM     32  H   UNL     1      -1.917   1.353  14.069  1.00  0.00     0.163 HD
BRANCH  30  33
ATOM     33  C   UNL     1      -3.974   2.354  15.250  1.00  0.00     0.113 C 
BRANCH  33  34
ATOM     34  C   UNL     1      -3.781   3.558  16.169  1.00  0.00     0.119 C 
BRANCH  34  35
ATOM     35  C   UNL     1      -2.837   4.566  15.578  1.00  0.00     0.139 C 
ATOM     36  O   UNL     1      -2.003   5.230  16.164  1.00  0.00    -0.650 OA
BRANCH  35  37
ATOM     37  O   UNL     1      -3.017   4.701  14.249  1.00  0.00    -0.776 OA
ATOM     38  H   UNL     1      -2.110   4.683  13.876  1.00  0.00     0.167 HD
ENDBRANCH  35  37
ENDBRANCH  34  35
ENDBRANCH  33  34
ENDBRANCH  30  33
ENDBRANCH  23  29
ENDBRANCH  17  18
ENDBRANCH  11  17
BRANCH  12  39
ATOM     39  O   UNL     1       0.771   4.497  16.336  1.00  0.00    -0.391 OA
ATOM     40  H   UNL     1      -0.088   4.595  15.882  1.00  0.00     0.210 HD
ENDBRANCH  12  39
BRANCH  13  41
ATOM     41  N   UNL     1       2.766   6.036  15.245  1.00  0.00    -0.349 N 
ATOM     42  C   UNL     1       3.679   6.936  14.756  1.00  0.00     0.218 C 
ATOM     43  O   UNL     1       4.288   6.750  13.706  1.00  0.00    -0.274 OA
ATOM     44  H   UNL     1       2.209   6.294  16.056  1.00  0.00     0.163 HD
BRANCH  42  45
ATOM     45  C   UNL     1       3.886   8.125  15.663  1.00  0.00     0.113 C 
BRANCH  45  46
ATOM     46  C   UNL     1       2.576   8.837  15.965  1.00  0.00     0.119 C 
BRANCH  46  47
ATOM     47  C   UNL     1       2.092   9.590  14.761  1.00  0.00     0.139 C 
ATOM     48  O   UNL     1       2.753  10.287  14.009  1.00  0.00    -0.650 OA
BRANCH  47  49
ATOM     49  O   UNL     1       0.776   9.403  14.541  1.00  0.00    -0.776 OA
ATOM     50  H   UNL     1       0.628   9.768  13.644  1.00  0.00     0.167 HD
ENDBRANCH  47  49
ENDBRANCH  46  47
ENDBRANCH  45  46
ENDBRANCH  42  45
ENDBRANCH  13  41
ENDBRANCH   7   8
ENDBRANCH   1   7
BRANCH   2  51
ATOM     51  C   UNL     1       2.831   6.284  10.089  1.00  0.00     0.198 C 
BRANCH  51  52
ATOM     52  O   UNL     1       3.927   6.316  10.996  1.00  0.00    -0.398 OA
ATOM     53  H   UNL     1       4.038   5.419  11.366  1.00  0.00     0.209 HD
ENDBRANCH  51  52
ENDBRANCH   2  51
BRANCH   3  54
ATOM     54  O   UNL     1      -1.259   6.976  11.831  1.00  0.00    -0.391 OA
ATOM     55  H   UNL     1      -1.394   7.015  12.798  1.00  0.00     0.210 HD
ENDBRANCH   3  54
BRANCH   4  56
ATOM     56  N   UNL     1      -1.412   9.018   9.761  1.00  0.00     0.090 N 
ATOM     57  H   UNL     1      -2.229   8.426   9.687  1.00  0.00     0.313 HD
ATOM     58  H   UNL     1      -1.567   9.624  10.575  1.00  0.00     0.313 HD
ENDBRANCH   4  56
BRANCH   5  59
ATOM     59  O   UNL     1      -1.189   6.592   8.448  1.00  0.00    -0.348 OA
BRANCH  59  60
ATOM     60  C   UNL     1      -1.194   6.836   7.029  1.00  0.00     0.186 C 
ATOM     61  C   UNL     1       0.121   7.500   6.545  1.00  0.00     0.179 C 
ATOM     62  O   UNL     1       0.777   6.820   5.455  1.00  0.00    -0.349 OA
ATOM     63  C   UNL     1      -0.035   6.389   4.359  1.00  0.00     0.281 C 
ATOM     64  C   UNL     1      -1.375   5.740   4.806  1.00  0.00     0.149 C 
ATOM     65  C   UNL     1      -1.420   5.485   6.323  1.00  0.00     0.172 C 
BRANCH  61  66
ATOM     66  C   UNL     1      -0.103   8.965   6.134  1.00  0.00     0.198 C 
BRANCH  66  67
ATOM     67  O   UNL     1      -0.940   9.629   7.074  1.00  0.00    -0.398 OA
ATOM     68  H   UNL     1      -0.472  10.429   7.381  1.00  0.00     0.209 HD
ENDBRANCH  66  67
ENDBRANCH  61  66
BRANCH  63  69
ATOM     69  O   UNL     1       0.741   5.503   3.559  1.00  0.00    -0.349 OA
BRANCH  69  70
ATOM     70  C   UNL     1       2.084   5.914   3.283  1.00  0.00     0.186 C 
ATOM     71  C   UNL     1       3.121   4.946   3.903  1.00  0.00     0.176 C 
ATOM     72  O   UNL     1       4.273   4.746   3.044  1.00  0.00    -0.379 OA
ATOM     73  C   UNL     1       4.729   5.944   2.405  1.00  0.00     0.196 C 
ATOM     74  C   UNL     1       3.685   6.483   1.410  1.00  0.00     0.139 C 
ATOM     75  C   UNL     1       2.280   5.949   1.748  1.00  0.00     0.174 C 
BRANCH  71  76
ATOM     76  C   UNL     1       3.620   5.394   5.285  1.00  0.00     0.198 C 
BRANCH  76  77
ATOM     77  O   UNL     1       2.715   4.956   6.295  1.00  0.00    -0.398 OA
ATOM     78  H   UNL     1       1.847   5.352   6.081  1.00  0.00     0.209 HD
ENDBRANCH  76  77
ENDBRANCH  71  76
BRANCH  74  79
ATOM     79  N   UNL     1       4.036   6.133   0.035  1.00  0.00    -0.352 N 
ATOM     80  C   UNL     1       5.284   6.369  -0.494  1.00  0.00     0.218 C 
ATOM     81  O   UNL     1       6.216   6.821   0.160  1.00  0.00    -0.274 OA
ATOM     82  H   UNL     1       3.258   5.981  -0.600  1.00  0.00     0.163 HD
BRANCH  80  83
ATOM     83  C   UNL     1       5.393   5.972  -1.950  1.00  0.00     0.113 C 
BRANCH  83  84
ATOM     84  C   UNL     1       6.828   6.059  -2.454  1.00  0.00     0.119 C 
BRANCH  84  85
ATOM     85  C   UNL     1       7.606   4.836  -2.071  1.00  0.00     0.139 C 
ATOM     86  O   UNL     1       7.368   3.682  -2.385  1.00  0.00    -0.650 OA
BRANCH  85  87
ATOM     87  O   UNL     1       8.664   5.131  -1.292  1.00  0.00    -0.776 OA
ATOM     88  H   UNL     1       8.978   5.998  -1.625  1.00  0.00     0.167 HD
ENDBRANCH  85  87
ENDBRANCH  84  85
ENDBRANCH  83  84
ENDBRANCH  80  83
ENDBRANCH  74  79
BRANCH  75  89
ATOM     89  O   UNL     1       2.107   4.646   1.154  1.00  0.00    -0.391 OA
ATOM     90  H   UNL     1       2.974   4.349   0.820  1.00  0.00     0.210 HD
ENDBRANCH  75  89
ENDBRANCH  69  70
ENDBRANCH  63  69
BRANCH  64  91
ATOM     91  N   UNL     1      -1.982   4.695   3.965  1.00  0.00    -0.251 NA
ATOM     92  C   UNL     1      -2.458   4.941   2.705  1.00  0.00     0.198 C 
ATOM     93  O   UNL     1      -1.868   4.396   1.770  1.00  0.00    -0.280 OA
ATOM     94  H   UNL     1      -1.320   3.937   3.832  1.00  0.00     0.131 HD
BRANCH  92  95
ATOM     95  C   UNL     1      -3.743   5.703   2.508  1.00  0.00     0.107 C 
BRANCH  95  96
ATOM     96  C   UNL     1      -3.762   6.176   1.054  1.00  0.00     0.118 C 
BRANCH  96  97
ATOM     97  C   UNL     1      -5.108   6.058   0.410  1.00  0.00     0.139 C 
ATOM     98  O   UNL     1      -5.714   6.911  -0.217  1.00  0.00    -0.650 OA
BRANCH  97  99
ATOM     99  O   UNL     1      -5.608   4.809   0.522  1.00  0.00    -0.776 OA
ATOM    100  H   UNL     1      -6.084   4.820   1.377  1.00  0.00     0.167 HD
ENDBRANCH  97  99
ENDBRANCH  96  97
ENDBRANCH  95  96
ENDBRANCH  92  95
ENDBRANCH  64  91
BRANCH  65 101
ATOM    101  O   UNL     1      -0.457   4.518   6.733  1.00  0.00    -0.391 OA
ATOM    102  H   UNL     1      -0.154   4.781   7.624  1.00  0.00     0.210 HD
ENDBRANCH  65 101
ENDBRANCH  59  60
ENDBRANCH   5  59
TORSDOF 44
ENDMDL
MODEL 3
REMARK VINA RESULT:      -8.2      2.713      3.973
REMARK WARNING: 32 MAX_TORS EXCEEDED!!!
REMARK  44 active torsions:
REMARK  status: ('A' for Active; 'I' for Inactive)
REMARK    1  A    between atoms: C_1  and  O_44 
REMARK    2  A    between atoms: C_2  and  C_6 
REMARK    3  A    between atoms: C_3  and  O_10 
REMARK    4  A    between atoms: C_4  and  N_12 
REMARK    5  A    between atoms: C_5  and  O_14 
REMARK    6  A    between atoms: C_6  and  O_7 
REMARK    7  A    between atoms: O_14  and  C_27 
REMARK    8  A    between atoms: O_16  and  C_21 
REMARK    9  A    between atoms: C_18  and  C_33 
REMARK   10  A    between atoms: O_20  and  C_33 
REMARK   11  A    between atoms: O_22  and  C_30 
REMARK   12  A    between atoms: O_22  and  C_70 
REMARK   13  A    between atoms: O_23  and  C_24 
REMARK   14  A    between atoms: C_24  and  C_28 
REMARK   15  A    between atoms: C_28  and  C_31 
REMARK       I    between atoms: N_29  and  C_32 
REMARK   16  A    between atoms: N_29  and  C_35 
REMARK   17  A    between atoms: C_31  and  C_32 
REMARK   18  A    between atoms: O_38  and  C_43 
REMARK   19  A    between atoms: C_40  and  C_55 
REMARK   20  A    between atoms: O_42  and  C_55 
REMARK   21  A    between atoms: O_44  and  C_52 
REMARK   22  A    between atoms: O_45  and  C_46 
REMARK   23  A    between atoms: C_46  and  C_50 
REMARK   24  A    between atoms: C_49  and  O_87 
REMARK   25  A    between atoms: C_50  and  C_53 
REMARK       I    between atoms: N_51  and  C_54 
REMARK   26  A    between atoms: N_51  and  C_57 
REMARK   27  A    between atoms: C_53  and  C_54 
REMARK   28  A    between atoms: O_60  and  C_65 
REMARK   29  A    between atoms: C_62  and  C_76 
REMARK   30  A    between atoms: O_64  and  C_76 
REMARK   31  A    between atoms: O_66  and  C_67 
REMARK   32  A    between atoms: C_67  and  C_71 
REMARK   33  A    between atoms: C_71  and  C_74 
REMARK       I    between atoms: N_72  and  C_75 
REMARK   34  A    between atoms: N_72  and  C_78 
REMARK   35  A    between atoms: C_74  and  C_75 
REMARK   36  A    between atoms: O_81  and  C_86 
REMARK   37  A    between atoms: C_83  and  C_98 
REMARK   38  A    between atoms: O_85  and  C_98 
REMARK   39  A    between atoms: O_87  and  C_95 
REMARK   40  A    between atoms: O_88  and  C_89 
REMARK   41  A    between atoms: C_89  and  C_93 
REMARK   42  A    between atoms: C_93  and  C_96 
REMARK       I    between atoms: N_94  and  C_97 
REMARK   43  A    between atoms: N_94  and  C_100 
REMARK   44  A    between atoms: C_96  and  C_97 
ROOT
ATOM      1  C   UNL     1       1.883   6.625   8.859  1.00  0.00     0.186 C 
ATOM      2  C   UNL     1       0.697   5.711   9.238  1.00  0.00     0.179 C 
ATOM      3  C   UNL     1       3.208   6.033   9.376  1.00  0.00     0.187 C 
ATOM      4  C   UNL     1       3.071   5.709  10.878  1.00  0.00     0.303 C 
ATOM      5  C   UNL     1       1.895   4.693  11.105  1.00  0.00     0.296 C 
ATOM      6  O   UNL     1       1.107   4.507   9.923  1.00  0.00    -0.349 OA
ENDROOT
BRANCH   1   7
ATOM      7  O   UNL     1       1.958   6.766   7.431  1.00  0.00    -0.348 OA
BRANCH   7   8
ATOM      8  C   UNL     1       0.850   6.232   6.697  1.00  0.00     0.286 C 
ATOM      9  O   UNL     1       1.397   5.456   5.627  1.00  0.00    -0.349 OA
ATOM     10  C   UNL     1       0.424   4.805   4.789  1.00  0.00     0.180 C 
ATOM     11  C   UNL     1      -0.659   5.766   4.248  1.00  0.00     0.186 C 
ATOM     12  C   UNL     1      -0.337   7.214   4.649  1.00  0.00     0.177 C 
ATOM     13  C   UNL     1      -0.075   7.364   6.154  1.00  0.00     0.170 C 
BRANCH  10  14
ATOM     14  C   UNL     1      -0.192   3.597   5.513  1.00  0.00     0.198 C 
BRANCH  14  15
ATOM     15  O   UNL     1      -0.874   2.741   4.601  1.00  0.00    -0.398 OA
ATOM     16  H   UNL     1      -1.095   1.913   5.069  1.00  0.00     0.209 HD
ENDBRANCH  14  15
ENDBRANCH  10  14
BRANCH  11  17
ATOM     17  O   UNL     1      -0.645   5.681   2.815  1.00  0.00    -0.348 OA
BRANCH  17  18
ATOM     18  C   UNL     1      -1.671   6.386   2.113  1.00  0.00     0.286 C 
ATOM     19  O   UNL     1      -2.609   5.412   1.670  1.00  0.00    -0.352 OA
ATOM     20  C   UNL     1      -3.780   5.955   1.032  1.00  0.00     0.150 C 
ATOM     21  C   UNL     1      -3.522   7.258   0.268  1.00  0.00     0.068 C 
ATOM     22  C   UNL     1      -2.095   7.305  -0.252  1.00  0.00     0.148 C 
ATOM     23  C   UNL     1      -1.094   7.211   0.921  1.00  0.00     0.168 C 
BRANCH  20  24
ATOM     24  C   UNL     1      -4.884   6.125   2.085  1.00  0.00     0.196 C 
BRANCH  24  25
ATOM     25  O   UNL     1      -5.845   5.079   1.963  1.00  0.00    -0.398 OA
ATOM     26  H   UNL     1      -6.721   5.514   1.942  1.00  0.00     0.209 HD
ENDBRANCH  24  25
ENDBRANCH  20  24
BRANCH  22  27
ATOM     27  O   UNL     1      -1.923   6.230  -1.182  1.00  0.00    -0.393 OA
ATOM     28  H   UNL     1      -2.822   5.921  -1.403  1.00  0.00     0.210 HD
ENDBRANCH  22  27
BRANCH  23  29
ATOM     29  N   UNL     1       0.226   6.754   0.463  1.00  0.00    -0.349 N 
ATOM     30  C   UNL     1       1.367   7.378   0.913  1.00  0.00     0.218 C 
ATOM     31  O   UNL     1       1.329   8.447   1.516  1.00  0.00    -0.274 OA
ATOM     32  H   UNL     1       0.278   5.815   0.067  1.00  0.00     0.163 HD
BRANCH  30  33
ATOM     33  C   UNL     1       2.653   6.643   0.610  1.00  0.00     0.113 C 
BRANCH  33  34
ATOM     34  C   UNL     1       2.758   5.389   1.475  1.00  0.00     0.119 C 
BRANCH  34  35
ATOM     35  C   UNL     1       3.646   5.605   2.667  1.00  0.00     0.139 C 
ATOM     36  O   UNL     1       4.651   4.986   2.960  1.00  0.00    -0.650 OA
BRANCH  35  37
ATOM     37  O   UNL     1       3.193   6.600   3.455  1.00  0.00    -0.776 OA
ATOM     38  H   UNL     1       3.436   7.420   2.977  1.00  0.00     0.167 HD
ENDBRANCH  35  37
ENDBRANCH  34  35
ENDBRANCH  33  34
ENDBRANCH  30  33
ENDBRANCH  23  29
ENDBRANCH  17  18
ENDBRANCH  11  17
BRANCH  12  39
ATOM     39  O   UNL     1       0.772   7.727   3.888  1.00  0.00    -0.391 OA
ATOM     40  H   UNL     1       1.593   7.439   4.330  1.00  0.00     0.210 HD
ENDBRANCH  12  39
BRANCH  13  41
ATOM     41  N   UNL     1       0.408   8.717   6.423  1.00  0.00    -0.349 N 
ATOM     42  C   UNL     1      -0.120   9.503   7.416  1.00  0.00     0.218 C 
ATOM     43  O   UNL     1      -1.135   9.191   8.033  1.00  0.00    -0.274 OA
ATOM     44  H   UNL     1       1.310   8.966   6.027  1.00  0.00     0.163 HD
BRANCH  42  45
ATOM     45  C   UNL     1       0.640  10.791   7.620  1.00  0.00     0.113 C 
BRANCH  45  46
ATOM     46  C   UNL     1      -0.250  11.885   8.190  1.00  0.00     0.119 C 
BRANCH  46  47
ATOM     47  C   UNL     1      -0.088  11.980   9.678  1.00  0.00     0.139 C 
ATOM     48  O   UNL     1       0.652  12.726  10.296  1.00  0.00    -0.650 OA
BRANCH  47  49
ATOM     49  O   UNL     1      -0.905  11.131  10.332  1.00  0.00    -0.776 OA
ATOM     50  H   UNL     1      -1.141  10.458   9.660  1.00  0.00     0.167 HD
ENDBRANCH  47  49
ENDBRANCH  46  47
ENDBRANCH  45  46
ENDBRANCH  42  45
ENDBRANCH  13  41
ENDBRANCH   7   8
ENDBRANCH   1   7
BRANCH   2  51
ATOM     51  C   UNL     1      -0.353   6.464  10.073  1.00  0.00     0.198 C 
BRANCH  51  52
ATOM     52  O   UNL     1      -1.516   6.738   9.300  1.00  0.00    -0.398 OA
ATOM     53  H   UNL     1      -2.295   6.640   9.881  1.00  0.00     0.209 HD
ENDBRANCH  51  52
ENDBRANCH   2  51
BRANCH   3  54
ATOM     54  O   UNL     1       3.600   4.856   8.647  1.00  0.00    -0.391 OA
ATOM     55  H   UNL     1       4.555   4.719   8.801  1.00  0.00     0.210 HD
ENDBRANCH   3  54
BRANCH   4  56
ATOM     56  N   UNL     1       4.389   5.318  11.411  1.00  0.00     0.090 N 
ATOM     57  H   UNL     1       4.570   4.332  11.271  1.00  0.00     0.313 HD
ATOM     58  H   UNL     1       5.100   5.823  10.871  1.00  0.00     0.313 HD
ENDBRANCH   4  56
BRANCH   5  59
ATOM     59  O   UNL     1       2.397   3.396  11.479  1.00  0.00    -0.348 OA
BRANCH  59  60
ATOM     60  C   UNL     1       1.921   2.901  12.744  1.00  0.00     0.186 C 
ATOM     61  C   UNL     1       2.258   1.401  12.950  1.00  0.00     0.179 C 
ATOM     62  O   UNL     1       2.949   1.098  14.179  1.00  0.00    -0.349 OA
ATOM     63  C   UNL     1       2.458   1.701  15.380  1.00  0.00     0.281 C 
ATOM     64  C   UNL     1       2.085   3.200  15.205  1.00  0.00     0.149 C 
ATOM     65  C   UNL     1       2.555   3.763  13.853  1.00  0.00     0.172 C 
BRANCH  61  66
ATOM     66  C   UNL     1       0.998   0.523  12.876  1.00  0.00     0.198 C 
BRANCH  66  67
ATOM     67  O   UNL     1       1.330  -0.850  13.044  1.00  0.00    -0.398 OA
ATOM     68  H   UNL     1       0.654  -1.383  12.583  1.00  0.00     0.209 HD
ENDBRANCH  66  67
ENDBRANCH  61  66
BRANCH  63  69
ATOM     69  O   UNL     1       3.436   1.514  16.397  1.00  0.00    -0.349 OA
BRANCH  69  70
ATOM     70  C   UNL     1       3.060   0.662  17.485  1.00  0.00     0.186 C 
ATOM     71  C   UNL     1       1.799   1.185  18.216  1.00  0.00     0.176 C 
ATOM     72  O   UNL     1       0.919   0.111  18.636  1.00  0.00    -0.379 OA
ATOM     73  C   UNL     1       1.611  -1.028  19.161  1.00  0.00     0.196 C 
ATOM     74  C   UNL     1       2.458  -1.720  18.079  1.00  0.00     0.139 C 
ATOM     75  C   UNL     1       2.770  -0.750  16.924  1.00  0.00     0.174 C 
BRANCH  71  76
ATOM     76  C   UNL     1       2.122   2.052  19.442  1.00  0.00     0.198 C 
BRANCH  76  77
ATOM     77  O   UNL     1       2.977   3.129  19.065  1.00  0.00    -0.398 OA
ATOM     78  H   UNL     1       2.398   3.899  18.899  1.00  0.00     0.209 HD
ENDBRANCH  76  77
ENDBRANCH  71  76
BRANCH  74  79
ATOM     79  N   UNL     1       1.785  -2.912  17.564  1.00  0.00    -0.352 N 
ATOM     80  C   UNL     1       2.472  -4.019  17.124  1.00  0.00     0.218 C 
ATOM     81  O   UNL     1       3.691  -4.124  17.194  1.00  0.00    -0.274 OA
ATOM     82  H   UNL     1       0.820  -2.789  17.273  1.00  0.00     0.163 HD
BRANCH  80  83
ATOM     83  C   UNL     1       1.565  -5.104  16.588  1.00  0.00     0.113 C 
BRANCH  83  84
ATOM     84  C   UNL     1       0.163  -4.580  16.304  1.00  0.00     0.119 C 
BRANCH  84  85
ATOM     85  C   UNL     1       0.105  -3.903  14.967  1.00  0.00     0.139 C 
ATOM     86  O   UNL     1       0.045  -2.704  14.748  1.00  0.00    -0.650 OA
BRANCH  85  87
ATOM     87  O   UNL     1       0.119  -4.786  13.950  1.00  0.00    -0.776 OA
ATOM     88  H   UNL     1      -0.265  -4.294  13.195  1.00  0.00     0.167 HD
ENDBRANCH  85  87
ENDBRANCH  84  85
ENDBRANCH  83  84
ENDBRANCH  80  83
ENDBRANCH  74  79
BRANCH  75  89
ATOM     89  O   UNL     1       1.668  -0.744  15.993  1.00  0.00    -0.391 OA
ATOM     90  H   UNL     1       1.132  -1.542  16.154  1.00  0.00     0.210 HD
ENDBRANCH  75  89
ENDBRANCH  69  70
ENDBRANCH  63  69
BRANCH  64  91
ATOM     91  N   UNL     1       2.217   4.111  16.356  1.00  0.00    -0.251 NA
ATOM     92  C   UNL     1       1.227   4.981  16.730  1.00  0.00     0.198 C 
ATOM     93  O   UNL     1       0.690   4.777  17.820  1.00  0.00    -0.280 OA
ATOM     94  H   UNL     1       2.400   3.573  17.197  1.00  0.00     0.131 HD
BRANCH  92  95
ATOM     95  C   UNL     1       0.946   6.216  15.914  1.00  0.00     0.107 C 
BRANCH  95  96
ATOM     96  C   UNL     1       1.897   7.304  16.410  1.00  0.00     0.118 C 
BRANCH  96  97
ATOM     97  C   UNL     1       3.307   7.118  15.941  1.00  0.00     0.139 C 
ATOM     98  O   UNL     1       3.685   6.710  14.856  1.00  0.00    -0.650 OA
BRANCH  97  99
ATOM     99  O   UNL     1       4.199   7.543  16.860  1.00  0.00    -0.776 OA
ATOM    100  H   UNL     1       3.721   8.244  17.349  1.00  0.00     0.167 HD
ENDBRANCH  97  99
ENDBRANCH  96  97
ENDBRANCH  95  96
ENDBRANCH  92  95
ENDBRANCH  64  91
BRANCH  65 101
ATOM    101  O   UNL     1       3.976   3.784  13.744  1.00  0.00    -0.391 OA
ATOM    102  H   UNL     1       4.195   4.391  13.011  1.00  0.00     0.210 HD
ENDBRANCH  65 101
ENDBRANCH  59  60
ENDBRANCH   5  59
TORSDOF 44
ENDMDL
MODEL 4
REMARK VINA RESULT:      -8.2      2.345     13.113
REMARK WARNING: 32 MAX_TORS EXCEEDED!!!
REMARK  44 active torsions:
REMARK  status: ('A' for Active; 'I' for Inactive)
REMARK    1  A    between atoms: C_1  and  O_44 
REMARK    2  A    between atoms: C_2  and  C_6 
REMARK    3  A    between atoms: C_3  and  O_10 
REMARK    4  A    between atoms: C_4  and  N_12 
REMARK    5  A    between atoms: C_5  and  O_14 
REMARK    6  A    between atoms: C_6  and  O_7 
REMARK    7  A    between atoms: O_14  and  C_27 
REMARK    8  A    between atoms: O_16  and  C_21 
REMARK    9  A    between atoms: C_18  and  C_33 
REMARK   10  A    between atoms: O_20  and  C_33 
REMARK   11  A    between atoms: O_22  and  C_30 
REMARK   12  A    between atoms: O_22  and  C_70 
REMARK   13  A    between atoms: O_23  and  C_24 
REMARK   14  A    between atoms: C_24  and  C_28 
REMARK   15  A    between atoms: C_28  and  C_31 
REMARK       I    between atoms: N_29  and  C_32 
REMARK   16  A    between atoms: N_29  and  C_35 
REMARK   17  A    between atoms: C_31  and  C_32 
REMARK   18  A    between atoms: O_38  and  C_43 
REMARK   19  A    between atoms: C_40  and  C_55 
REMARK   20  A    between atoms: O_42  and  C_55 
REMARK   21  A    between atoms: O_44  and  C_52 
REMARK   22  A    between atoms: O_45  and  C_46 
REMARK   23  A    between atoms: C_46  and  C_50 
REMARK   24  A    between atoms: C_49  and  O_87 
REMARK   25  A    between atoms: C_50  and  C_53 
REMARK       I    between atoms: N_51  and  C_54 
REMARK   26  A    between atoms: N_51  and  C_57 
REMARK   27  A    between atoms: C_53  and  C_54 
REMARK   28  A    between atoms: O_60  and  C_65 
REMARK   29  A    between atoms: C_62  and  C_76 
REMARK   30  A    between atoms: O_64  and  C_76 
REMARK   31  A    between atoms: O_66  and  C_67 
REMARK   32  A    between atoms: C_67  and  C_71 
REMARK   33  A    between atoms: C_71  and  C_74 
REMARK       I    between atoms: N_72  and  C_75 
REMARK   34  A    between atoms: N_72  and  C_78 
REMARK   35  A    between atoms: C_74  and  C_75 
REMARK   36  A    between atoms: O_81  and  C_86 
REMARK   37  A    between atoms: C_83  and  C_98 
REMARK   38  A    between atoms: O_85  and  C_98 
REMARK   39  A    between atoms: O_87  and  C_95 
REMARK   40  A    between atoms: O_88  and  C_89 
REMARK   41  A    between atoms: C_89  and  C_93 
REMARK   42  A    between atoms: C_93  and  C_96 
REMARK       I    between atoms: N_94  and  C_97 
REMARK   43  A    between atoms: N_94  and  C_100 
REMARK   44  A    between atoms: C_96  and  C_97 
ROOT
ATOM      1  C   UNL     1       0.256   5.070  13.758  1.00  0.00     0.186 C 
ATOM      2  C   UNL     1       0.069   4.954  12.230  1.00  0.00     0.179 C 
ATOM      3  C   UNL     1       1.101   6.311  14.106  1.00  0.00     0.187 C 
ATOM      4  C   UNL     1       2.401   6.293  13.276  1.00  0.00     0.303 C 
ATOM      5  C   UNL     1       2.060   6.278  11.743  1.00  0.00     0.296 C 
ATOM      6  O   UNL     1       0.667   6.050  11.502  1.00  0.00    -0.349 OA
ENDROOT
BRANCH   1   7
ATOM      7  O   UNL     1      -1.023   5.178  14.404  1.00  0.00    -0.348 OA
BRANCH   7   8
ATOM      8  C   UNL     1      -1.385   4.079  15.247  1.00  0.00     0.286 C 
ATOM      9  O   UNL     1      -1.568   2.944  14.394  1.00  0.00    -0.349 OA
ATOM     10  C   UNL     1      -1.906   1.722  15.074  1.00  0.00     0.180 C 
ATOM     11  C   UNL     1      -3.113   1.866  16.030  1.00  0.00     0.186 C 
ATOM     12  C   UNL     1      -3.726   3.270  15.908  1.00  0.00     0.177 C 
ATOM     13  C   UNL     1      -2.681   4.384  16.060  1.00  0.00     0.170 C 
BRANCH  10  14
ATOM     14  C   UNL     1      -0.676   1.140  15.789  1.00  0.00     0.198 C 
BRANCH  14  15
ATOM     15  O   UNL     1      -1.036   0.050  16.633  1.00  0.00    -0.398 OA
ATOM     16  H   UNL     1      -2.011  -0.009  16.653  1.00  0.00     0.209 HD
ENDBRANCH  14  15
ENDBRANCH  10  14
BRANCH  11  17
ATOM     17  O   UNL     1      -4.104   0.906  15.634  1.00  0.00    -0.348 OA
BRANCH  17  18
ATOM     18  C   UNL     1      -4.540  -0.024  16.628  1.00  0.00     0.286 C 
ATOM     19  O   UNL     1      -3.870   0.319  17.835  1.00  0.00    -0.352 OA
ATOM     20  C   UNL     1      -4.273  -0.449  18.984  1.00  0.00     0.150 C 
ATOM     21  C   UNL     1      -4.691  -1.885  18.653  1.00  0.00     0.068 C 
ATOM     22  C   UNL     1      -3.948  -2.395  17.430  1.00  0.00     0.148 C 
ATOM     23  C   UNL     1      -4.248  -1.498  16.208  1.00  0.00     0.168 C 
BRANCH  20  24
ATOM     24  C   UNL     1      -5.386   0.309  19.720  1.00  0.00     0.196 C 
BRANCH  24  25
ATOM     25  O   UNL     1      -6.643  -0.328  19.501  1.00  0.00    -0.398 OA
ATOM     26  H   UNL     1      -7.052   0.129  18.739  1.00  0.00     0.209 HD
ENDBRANCH  24  25
ENDBRANCH  20  24
BRANCH  22  27
ATOM     27  O   UNL     1      -2.550  -2.423  17.735  1.00  0.00    -0.393 OA
ATOM     28  H   UNL     1      -2.489  -2.417  18.710  1.00  0.00     0.210 HD
ENDBRANCH  22  27
BRANCH  23  29
ATOM     29  N   UNL     1      -3.207  -1.630  15.178  1.00  0.00    -0.349 N 
ATOM     30  C   UNL     1      -3.329  -2.581  14.192  1.00  0.00     0.218 C 
ATOM     31  O   UNL     1      -4.165  -3.478  14.252  1.00  0.00    -0.274 OA
ATOM     32  H   UNL     1      -2.583  -0.833  15.048  1.00  0.00     0.163 HD
BRANCH  30  33
ATOM     33  C   UNL     1      -2.362  -2.427  13.039  1.00  0.00     0.113 C 
BRANCH  33  34
ATOM     34  C   UNL     1      -1.159  -1.591  13.470  1.00  0.00     0.119 C 
BRANCH  34  35
ATOM     35  C   UNL     1      -0.812  -0.545  12.451  1.00  0.00     0.139 C 
ATOM     36  O   UNL     1      -1.579   0.183  11.848  1.00  0.00    -0.650 OA
BRANCH  35  37
ATOM     37  O   UNL     1       0.516  -0.486  12.225  1.00  0.00    -0.776 OA
ATOM     38  H   UNL     1       0.921  -0.767  13.072  1.00  0.00     0.167 HD
ENDBRANCH  35  37
ENDBRANCH  34  35
ENDBRANCH  33  34
ENDBRANCH  30  33
ENDBRANCH  23  29
ENDBRANCH  17  18
ENDBRANCH  11  17
BRANCH  12  39
ATOM     39  O   UNL     1      -4.445   3.415  14.668  1.00  0.00    -0.391 OA
ATOM     40  H   UNL     1      -5.299   2.953  14.766  1.00  0.00     0.210 HD
ENDBRANCH  12  39
BRANCH  13  41
ATOM     41  N   UNL     1      -3.302   5.669  15.743  1.00  0.00    -0.349 N 
ATOM     42  C   UNL     1      -3.368   6.697  16.648  1.00  0.00     0.218 C 
ATOM     43  O   UNL     1      -3.063   6.555  17.829  1.00  0.00    -0.274 OA
ATOM     44  H   UNL     1      -3.455   5.870  14.759  1.00  0.00     0.163 HD
BRANCH  42  45
ATOM     45  C   UNL     1      -3.902   7.978  16.053  1.00  0.00     0.113 C 
BRANCH  45  46
ATOM     46  C   UNL     1      -2.795   8.810  15.425  1.00  0.00     0.119 C 
BRANCH  46  47
ATOM     47  C   UNL     1      -2.869   8.748  13.927  1.00  0.00     0.139 C 
ATOM     48  O   UNL     1      -3.245   7.811  13.243  1.00  0.00    -0.650 OA
BRANCH  47  49
ATOM     49  O   UNL     1      -2.487   9.905  13.352  1.00  0.00    -0.776 OA
ATOM     50  H   UNL     1      -1.721  10.199  13.888  1.00  0.00     0.167 HD
ENDBRANCH  47  49
ENDBRANCH  46  47
ENDBRANCH  45  46
ENDBRANCH  42  45
ENDBRANCH  13  41
ENDBRANCH   7   8
ENDBRANCH   1   7
BRANCH   2  51
ATOM     51  C   UNL     1       0.597   3.612  11.696  1.00  0.00     0.198 C 
BRANCH  51  52
ATOM     52  O   UNL     1      -0.285   2.548  12.035  1.00  0.00    -0.398 OA
ATOM     53  H   UNL     1      -0.807   2.825  12.812  1.00  0.00     0.209 HD
ENDBRANCH  51  52
ENDBRANCH   2  51
BRANCH   3  54
ATOM     54  O   UNL     1       0.384   7.538  13.883  1.00  0.00    -0.391 OA
ATOM     55  H   UNL     1       1.043   8.233  13.690  1.00  0.00     0.210 HD
ENDBRANCH   3  54
BRANCH   4  56
ATOM     56  N   UNL     1       3.288   7.375  13.742  1.00  0.00     0.090 N 
ATOM     57  H   UNL     1       2.788   8.250  13.841  1.00  0.00     0.313 HD
ATOM     58  H   UNL     1       3.614   7.121  14.681  1.00  0.00     0.313 HD
ENDBRANCH   4  56
BRANCH   5  59
ATOM     59  O   UNL     1       2.387   7.539  11.129  1.00  0.00    -0.348 OA
BRANCH  59  60
ATOM     60  C   UNL     1       2.403   7.529   9.689  1.00  0.00     0.186 C 
ATOM     61  C   UNL     1       2.000   6.149   9.109  1.00  0.00     0.179 C 
ATOM     62  O   UNL     1       0.932   6.187   8.140  1.00  0.00    -0.349 OA
ATOM     63  C   UNL     1       0.996   7.192   7.124  1.00  0.00     0.281 C 
ATOM     64  C   UNL     1       1.423   8.586   7.665  1.00  0.00     0.149 C 
ATOM     65  C   UNL     1       1.443   8.631   9.203  1.00  0.00     0.172 C 
BRANCH  61  66
ATOM     66  C   UNL     1       3.202   5.429   8.474  1.00  0.00     0.198 C 
BRANCH  66  67
ATOM     67  O   UNL     1       3.639   4.355   9.299  1.00  0.00    -0.398 OA
ATOM     68  H   UNL     1       3.401   3.519   8.854  1.00  0.00     0.209 HD
ENDBRANCH  66  67
ENDBRANCH  61  66
BRANCH  63  69
ATOM     69  O   UNL     1      -0.269   7.242   6.474  1.00  0.00    -0.349 OA
BRANCH  69  70
ATOM     70  C   UNL     1      -0.585   6.135   5.622  1.00  0.00     0.186 C 
ATOM     71  C   UNL     1      -2.056   5.682   5.789  1.00  0.00     0.176 C 
ATOM     72  O   UNL     1      -2.658   5.284   4.530  1.00  0.00    -0.379 OA
ATOM     73  C   UNL     1      -1.783   4.525   3.688  1.00  0.00     0.196 C 
ATOM     74  C   UNL     1      -0.587   5.369   3.213  1.00  0.00     0.139 C 
ATOM     75  C   UNL     1      -0.352   6.566   4.154  1.00  0.00     0.174 C 
BRANCH  71  76
ATOM     76  C   UNL     1      -2.228   4.531   6.791  1.00  0.00     0.198 C 
BRANCH  76  77
ATOM     77  O   UNL     1      -1.037   4.374   7.560  1.00  0.00    -0.398 OA
ATOM     78  H   UNL     1      -0.290   4.545   6.954  1.00  0.00     0.209 HD
ENDBRANCH  76  77
ENDBRANCH  71  76
BRANCH  74  79
ATOM     79  N   UNL     1      -0.785   5.840   1.843  1.00  0.00    -0.352 N 
ATOM     80  C   UNL     1       0.069   5.514   0.815  1.00  0.00     0.218 C 
ATOM     81  O   UNL     1       1.017   4.749   0.948  1.00  0.00    -0.274 OA
ATOM     82  H   UNL     1      -1.399   6.642   1.731  1.00  0.00     0.163 HD
BRANCH  80  83
ATOM     83  C   UNL     1      -0.310   6.162  -0.497  1.00  0.00     0.113 C 
BRANCH  83  84
ATOM     84  C   UNL     1      -1.764   6.616  -0.505  1.00  0.00     0.119 C 
BRANCH  84  85
ATOM     85  C   UNL     1      -1.865   8.086  -0.787  1.00  0.00     0.139 C 
ATOM     86  O   UNL     1      -0.956   8.899  -0.803  1.00  0.00    -0.650 OA
BRANCH  85  87
ATOM     87  O   UNL     1      -3.132   8.468  -1.035  1.00  0.00    -0.776 OA
ATOM     88  H   UNL     1      -3.155   8.626  -2.002  1.00  0.00     0.167 HD
ENDBRANCH  85  87
ENDBRANCH  84  85
ENDBRANCH  83  84
ENDBRANCH  80  83
ENDBRANCH  74  79
BRANCH  75  89
ATOM     89  O   UNL     1      -1.216   7.655   3.769  1.00  0.00    -0.391 OA
ATOM     90  H   UNL     1      -1.782   7.876   4.531  1.00  0.00     0.210 HD
ENDBRANCH  75  89
ENDBRANCH  69  70
ENDBRANCH  63  69
BRANCH  64  91
ATOM     91  N   UNL     1       0.922   9.799   6.997  1.00  0.00    -0.251 NA
ATOM     92  C   UNL     1       0.533  10.918   7.684  1.00  0.00     0.198 C 
ATOM     93  O   UNL     1       1.213  11.933   7.525  1.00  0.00    -0.280 OA
ATOM     94  H   UNL     1       1.620  10.143   6.346  1.00  0.00     0.131 HD
BRANCH  92  95
ATOM     95  C   UNL     1      -0.761  10.930   8.456  1.00  0.00     0.107 C 
BRANCH  95  96
ATOM     96  C   UNL     1      -0.815  12.256   9.213  1.00  0.00     0.118 C 
BRANCH  96  97
ATOM     97  C   UNL     1      -0.965  12.088  10.693  1.00  0.00     0.139 C 
ATOM     98  O   UNL     1      -1.287  12.932  11.513  1.00  0.00    -0.650 OA
BRANCH  97  99
ATOM     99  O   UNL     1      -0.772  10.806  11.073  1.00  0.00    -0.776 OA
ATOM    100  H   UNL     1      -0.787  10.306  10.232  1.00  0.00     0.167 HD
ENDBRANCH  97  99
ENDBRANCH  96  97
ENDBRANCH  95  96
ENDBRANCH  92  95
ENDBRANCH  64  91
BRANCH  65 101
ATOM    101  O   UNL     1       0.142   8.469   9.761  1.00  0.00    -0.391 OA
ATOM    102  H   UNL     1      -0.364   9.276   9.541  1.00  0.00     0.210 HD
ENDBRANCH  65 101
ENDBRANCH  59  60
ENDBRANCH   5  59
TORSDOF 44
ENDMDL
MODEL 5
REMARK VINA RESULT:      -8.2      1.938      3.684
REMARK WARNING: 32 MAX_TORS EXCEEDED!!!
REMARK  44 active torsions:
REMARK  status: ('A' for Active; 'I' for Inactive)
REMARK    1  A    between atoms: C_1  and  O_44 
REMARK    2  A    between atoms: C_2  and  C_6 
REMARK    3  A    between atoms: C_3  and  O_10 
REMARK    4  A    between atoms: C_4  and  N_12 
REMARK    5  A    between atoms: C_5  and  O_14 
REMARK    6  A    between atoms: C_6  and  O_7 
REMARK    7  A    between atoms: O_14  and  C_27 
REMARK    8  A    between atoms: O_16  and  C_21 
REMARK    9  A    between atoms: C_18  and  C_33 
REMARK   10  A    between atoms: O_20  and  C_33 
REMARK   11  A    between atoms: O_22  and  C_30 
REMARK   12  A    between atoms: O_22  and  C_70 
REMARK   13  A    between atoms: O_23  and  C_24 
REMARK   14  A    between atoms: C_24  and  C_28 
REMARK   15  A    between atoms: C_28  and  C_31 
REMARK       I    between atoms: N_29  and  C_32 
REMARK   16  A    between atoms: N_29  and  C_35 
REMARK   17  A    between atoms: C_31  and  C_32 
REMARK   18  A    between atoms: O_38  and  C_43 
REMARK   19  A    between atoms: C_40  and  C_55 
REMARK   20  A    between atoms: O_42  and  C_55 
REMARK   21  A    between atoms: O_44  and  C_52 
REMARK   22  A    between atoms: O_45  and  C_46 
REMARK   23  A    between atoms: C_46  and  C_50 
REMARK   24  A    between atoms: C_49  and  O_87 
REMARK   25  A    between atoms: C_50  and  C_53 
REMARK       I    between atoms: N_51  and  C_54 
REMARK   26  A    between atoms: N_51  and  C_57 
REMARK   27  A    between atoms: C_53  and  C_54 
REMARK   28  A    between atoms: O_60  and  C_65 
REMARK   29  A    between atoms: C_62  and  C_76 
REMARK   30  A    between atoms: O_64  and  C_76 
REMARK   31  A    between atoms: O_66  and  C_67 
REMARK   32  A    between atoms: C_67  and  C_71 
REMARK   33  A    between atoms: C_71  and  C_74 
REMARK       I    between atoms: N_72  and  C_75 
REMARK   34  A    between atoms: N_72  and  C_78 
REMARK   35  A    between atoms: C_74  and  C_75 
REMARK   36  A    between atoms: O_81  and  C_86 
REMARK   37  A    between atoms: C_83  and  C_98 
REMARK   38  A    between atoms: O_85  and  C_98 
REMARK   39  A    between atoms: O_87  and  C_95 
REMARK   40  A    between atoms: O_88  and  C_89 
REMARK   41  A    between atoms: C_89  and  C_93 
REMARK   42  A    between atoms: C_93  and  C_96 
REMARK       I    between atoms: N_94  and  C_97 
REMARK   43  A    between atoms: N_94  and  C_100 
REMARK   44  A    between atoms: C_96  and  C_97 
ROOT
ATOM      1  C   UNL     1       1.977   6.544   8.711  1.00  0.00     0.186 C 
ATOM      2  C   UNL     1       0.785   5.646   9.108  1.00  0.00     0.179 C 
ATOM      3  C   UNL     1       3.299   5.948   9.232  1.00  0.00     0.187 C 
ATOM      4  C   UNL     1       3.166   5.647  10.739  1.00  0.00     0.303 C 
ATOM      5  C   UNL     1       1.983   4.644  10.984  1.00  0.00     0.296 C 
ATOM      6  O   UNL     1       1.189   4.448   9.808  1.00  0.00    -0.349 OA
ENDROOT
BRANCH   1   7
ATOM      7  O   UNL     1       2.048   6.664   7.281  1.00  0.00    -0.348 OA
BRANCH   7   8
ATOM      8  C   UNL     1       0.928   6.139   6.560  1.00  0.00     0.286 C 
ATOM      9  O   UNL     1       1.456   5.381   5.468  1.00  0.00    -0.349 OA
ATOM     10  C   UNL     1       0.469   4.740   4.639  1.00  0.00     0.180 C 
ATOM     11  C   UNL     1      -0.626   5.707   4.132  1.00  0.00     0.186 C 
ATOM     12  C   UNL     1      -0.300   7.150   4.549  1.00  0.00     0.177 C 
ATOM     13  C   UNL     1      -0.010   7.277   6.051  1.00  0.00     0.170 C 
BRANCH  10  14
ATOM     14  C   UNL     1      -0.131   3.520   5.355  1.00  0.00     0.198 C 
BRANCH  14  15
ATOM     15  O   UNL     1      -1.138   2.898   4.561  1.00  0.00    -0.398 OA
ATOM     16  H   UNL     1      -1.852   2.599   5.157  1.00  0.00     0.209 HD
ENDBRANCH  14  15
ENDBRANCH  10  14
BRANCH  11  17
ATOM     17  O   UNL     1      -0.638   5.644   2.698  1.00  0.00    -0.348 OA
BRANCH  17  18
ATOM     18  C   UNL     1      -1.702   6.323   2.028  1.00  0.00     0.286 C 
ATOM     19  O   UNL     1      -2.618   5.324   1.593  1.00  0.00    -0.352 OA
ATOM     20  C   UNL     1      -3.820   5.835   0.988  1.00  0.00     0.150 C 
ATOM     21  C   UNL     1      -3.621   7.155   0.235  1.00  0.00     0.068 C 
ATOM     22  C   UNL     1      -2.209   7.255  -0.315  1.00  0.00     0.148 C 
ATOM     23  C   UNL     1      -1.179   7.180   0.834  1.00  0.00     0.168 C 
BRANCH  20  24
ATOM     24  C   UNL     1      -4.904   5.957   2.067  1.00  0.00     0.196 C 
BRANCH  24  25
ATOM     25  O   UNL     1      -5.914   4.971   1.862  1.00  0.00    -0.398 OA
ATOM     26  H   UNL     1      -5.685   4.514   1.029  1.00  0.00     0.209 HD
ENDBRANCH  24  25
ENDBRANCH  20  24
BRANCH  22  27
ATOM     27  O   UNL     1      -2.023   6.198  -1.262  1.00  0.00    -0.393 OA
ATOM     28  H   UNL     1      -1.755   6.629  -2.096  1.00  0.00     0.210 HD
ENDBRANCH  22  27
BRANCH  23  29
ATOM     29  N   UNL     1       0.145   6.772   0.341  1.00  0.00    -0.349 N 
ATOM     30  C   UNL     1       1.267   7.478   0.711  1.00  0.00     0.218 C 
ATOM     31  O   UNL     1       1.194   8.572   1.265  1.00  0.00    -0.274 OA
ATOM     32  H   UNL     1       0.232   5.819  -0.012  1.00  0.00     0.163 HD
BRANCH  30  33
ATOM     33  C   UNL     1       2.578   6.798   0.389  1.00  0.00     0.113 C 
BRANCH  33  34
ATOM     34  C   UNL     1       3.365   6.537   1.671  1.00  0.00     0.119 C 
BRANCH  34  35
ATOM     35  C   UNL     1       3.265   5.103   2.105  1.00  0.00     0.139 C 
ATOM     36  O   UNL     1       4.034   4.493   2.823  1.00  0.00    -0.650 OA
BRANCH  35  37
ATOM     37  O   UNL     1       2.184   4.494   1.578  1.00  0.00    -0.776 OA
ATOM     38  H   UNL     1       1.801   3.986   2.323  1.00  0.00     0.167 HD
ENDBRANCH  35  37
ENDBRANCH  34  35
ENDBRANCH  33  34
ENDBRANCH  30  33
ENDBRANCH  23  29
ENDBRANCH  17  18
ENDBRANCH  11  17
BRANCH  12  39
ATOM     39  O   UNL     1       0.794   7.677   3.775  1.00  0.00    -0.391 OA
ATOM     40  H   UNL     1       1.453   8.035   4.401  1.00  0.00     0.210 HD
ENDBRANCH  12  39
BRANCH  13  41
ATOM     41  N   UNL     1       0.475   8.627   6.332  1.00  0.00    -0.349 N 
ATOM     42  C   UNL     1      -0.056   9.408   7.327  1.00  0.00     0.218 C 
ATOM     43  O   UNL     1      -1.076   9.095   7.935  1.00  0.00    -0.274 OA
ATOM     44  H   UNL     1       1.380   8.876   5.943  1.00  0.00     0.163 HD
BRANCH  42  45
ATOM     45  C   UNL     1       0.706  10.693   7.543  1.00  0.00     0.113 C 
BRANCH  45  46
ATOM     46  C   UNL     1      -0.199  11.807   8.047  1.00  0.00     0.119 C 
BRANCH  46  47
ATOM     47  C   UNL     1      -0.097  11.940   9.538  1.00  0.00     0.139 C 
ATOM     48  O   UNL     1       0.644  12.677  10.167  1.00  0.00    -0.650 OA
BRANCH  47  49
ATOM     49  O   UNL     1      -0.973  11.142  10.180  1.00  0.00    -0.776 OA
ATOM     50  H   UNL     1      -0.820  11.330  11.129  1.00  0.00     0.167 HD
ENDBRANCH  47  49
ENDBRANCH  46  47
ENDBRANCH  45  46
ENDBRANCH  42  45
ENDBRANCH  13  41
ENDBRANCH   7   8
ENDBRANCH   1   7
BRANCH   2  51
ATOM     51  C   UNL     1      -0.254   6.419   9.937  1.00  0.00     0.198 C 
BRANCH  51  52
ATOM     52  O   UNL     1      -1.435   6.656   9.177  1.00  0.00    -0.398 OA
ATOM     53  H   UNL     1      -1.269   7.421   8.593  1.00  0.00     0.209 HD
ENDBRANCH  51  52
ENDBRANCH   2  51
BRANCH   3  54
ATOM     54  O   UNL     1       3.679   4.759   8.517  1.00  0.00    -0.391 OA
ATOM     55  H   UNL     1       4.293   4.257   9.087  1.00  0.00     0.210 HD
ENDBRANCH   3  54
BRANCH   4  56
ATOM     56  N   UNL     1       4.483   5.253  11.272  1.00  0.00     0.090 N 
ATOM     57  H   UNL     1       5.239   5.638  10.720  1.00  0.00     0.313 HD
ATOM     58  H   UNL     1       4.570   5.663  12.208  1.00  0.00     0.313 HD
ENDBRANCH   4  56
BRANCH   5  59
ATOM     59  O   UNL     1       2.476   3.349  11.374  1.00  0.00    -0.348 OA
BRANCH  59  60
ATOM     60  C   UNL     1       1.947   2.844  12.615  1.00  0.00     0.186 C 
ATOM     61  C   UNL     1       2.380   1.379  12.883  1.00  0.00     0.179 C 
ATOM     62  O   UNL     1       3.000   1.156  14.167  1.00  0.00    -0.349 OA
ATOM     63  C   UNL     1       2.378   1.745  15.313  1.00  0.00     0.281 C 
ATOM     64  C   UNL     1       1.906   3.207  15.072  1.00  0.00     0.149 C 
ATOM     65  C   UNL     1       2.430   3.775  13.743  1.00  0.00     0.172 C 
BRANCH  61  66
ATOM     66  C   UNL     1       1.199   0.405  12.742  1.00  0.00     0.198 C 
BRANCH  66  67
ATOM     67  O   UNL     1       0.023   1.096  12.337  1.00  0.00    -0.398 OA
ATOM     68  H   UNL     1      -0.326   0.654  11.539  1.00  0.00     0.209 HD
ENDBRANCH  66  67
ENDBRANCH  61  66
BRANCH  63  69
ATOM     69  O   UNL     1       3.289   1.655  16.403  1.00  0.00    -0.349 OA
BRANCH  69  70
ATOM     70  C   UNL     1       3.027   0.625  17.362  1.00  0.00     0.186 C 
ATOM     71  C   UNL     1       3.464   1.042  18.788  1.00  0.00     0.176 C 
ATOM     72  O   UNL     1       2.544   0.573  19.807  1.00  0.00    -0.379 OA
ATOM     73  C   UNL     1       2.067  -0.759  19.582  1.00  0.00     0.196 C 
ATOM     74  C   UNL     1       1.200  -0.841  18.314  1.00  0.00     0.139 C 
ATOM     75  C   UNL     1       1.508   0.333  17.363  1.00  0.00     0.174 C 
BRANCH  71  76
ATOM     76  C   UNL     1       4.876   0.565  19.155  1.00  0.00     0.198 C 
BRANCH  76  77
ATOM     77  O   UNL     1       5.837   1.546  18.772  1.00  0.00    -0.398 OA
ATOM     78  H   UNL     1       5.350   2.388  18.673  1.00  0.00     0.209 HD
ENDBRANCH  76  77
ENDBRANCH  71  76
BRANCH  74  79
ATOM     79  N   UNL     1      -0.224  -0.854  18.648  1.00  0.00    -0.352 N 
ATOM     80  C   UNL     1      -1.153  -1.543  17.905  1.00  0.00     0.218 C 
ATOM     81  O   UNL     1      -0.857  -2.255  16.953  1.00  0.00    -0.274 OA
ATOM     82  H   UNL     1      -0.544  -0.113  19.265  1.00  0.00     0.163 HD
BRANCH  80  83
ATOM     83  C   UNL     1      -2.567  -1.364  18.413  1.00  0.00     0.113 C 
BRANCH  83  84
ATOM     84  C   UNL     1      -3.404  -0.513  17.467  1.00  0.00     0.119 C 
BRANCH  84  85
ATOM     85  C   UNL     1      -4.432  -1.347  16.762  1.00  0.00     0.139 C 
ATOM     86  O   UNL     1      -4.355  -2.532  16.482  1.00  0.00    -0.650 OA
BRANCH  85  87
ATOM     87  O   UNL     1      -5.525  -0.634  16.432  1.00  0.00    -0.776 OA
ATOM     88  H   UNL     1      -5.394  -0.409  15.488  1.00  0.00     0.167 HD
ENDBRANCH  85  87
ENDBRANCH  84  85
ENDBRANCH  83  84
ENDBRANCH  80  83
ENDBRANCH  74  79
BRANCH  75  89
ATOM     89  O   UNL     1       0.738   1.486  17.762  1.00  0.00    -0.391 OA
ATOM     90  H   UNL     1       0.675   1.486  18.735  1.00  0.00     0.210 HD
ENDBRANCH  75  89
ENDBRANCH  69  70
ENDBRANCH  63  69
BRANCH  64  91
ATOM     91  N   UNL     1       1.884   4.148  16.205  1.00  0.00    -0.251 NA
ATOM     92  C   UNL     1       0.748   4.801  16.604  1.00  0.00     0.198 C 
ATOM     93  O   UNL     1       0.301   4.513  17.716  1.00  0.00    -0.280 OA
ATOM     94  H   UNL     1       2.203   3.678  17.046  1.00  0.00     0.131 HD
BRANCH  92  95
ATOM     95  C   UNL     1       0.189   5.934  15.782  1.00  0.00     0.107 C 
BRANCH  95  96
ATOM     96  C   UNL     1      -1.303   5.656  15.599  1.00  0.00     0.118 C 
BRANCH  96  97
ATOM     97  C   UNL     1      -1.634   5.042  14.274  1.00  0.00     0.139 C 
ATOM     98  O   UNL     1      -0.883   4.847  13.333  1.00  0.00    -0.650 OA
BRANCH  97  99
ATOM     99  O   UNL     1      -2.915   4.619  14.224  1.00  0.00    -0.776 OA
ATOM    100  H   UNL     1      -3.134   4.418  15.157  1.00  0.00     0.167 HD
ENDBRANCH  97  99
ENDBRANCH  96  97
ENDBRANCH  95  96
ENDBRANCH  92  95
ENDBRANCH  64  91
BRANCH  65 101
ATOM    101  O   UNL     1       3.850   3.904  13.736  1.00  0.00    -0.391 OA
ATOM    102  H   UNL     1       4.208   3.076  13.359  1.00  0.00     0.210 HD
ENDBRANCH  65 101
ENDBRANCH  59  60
ENDBRANCH   5  59
TORSDOF 44
ENDMDL
MODEL 6
REMARK VINA RESULT:      -8.0      3.372     13.095
REMARK WARNING: 32 MAX_TORS EXCEEDED!!!
REMARK  44 active torsions:
REMARK  status: ('A' for Active; 'I' for Inactive)
REMARK    1  A    between atoms: C_1  and  O_44 
REMARK    2  A    between atoms: C_2  and  C_6 
REMARK    3  A    between atoms: C_3  and  O_10 
REMARK    4  A    between atoms: C_4  and  N_12 
REMARK    5  A    between atoms: C_5  and  O_14 
REMARK    6  A    between atoms: C_6  and  O_7 
REMARK    7  A    between atoms: O_14  and  C_27 
REMARK    8  A    between atoms: O_16  and  C_21 
REMARK    9  A    between atoms: C_18  and  C_33 
REMARK   10  A    between atoms: O_20  and  C_33 
REMARK   11  A    between atoms: O_22  and  C_30 
REMARK   12  A    between atoms: O_22  and  C_70 
REMARK   13  A    between atoms: O_23  and  C_24 
REMARK   14  A    between atoms: C_24  and  C_28 
REMARK   15  A    between atoms: C_28  and  C_31 
REMARK       I    between atoms: N_29  and  C_32 
REMARK   16  A    between atoms: N_29  and  C_35 
REMARK   17  A    between atoms: C_31  and  C_32 
REMARK   18  A    between atoms: O_38  and  C_43 
REMARK   19  A    between atoms: C_40  and  C_55 
REMARK   20  A    between atoms: O_42  and  C_55 
REMARK   21  A    between atoms: O_44  and  C_52 
REMARK   22  A    between atoms: O_45  and  C_46 
REMARK   23  A    between atoms: C_46  and  C_50 
REMARK   24  A    between atoms: C_49  and  O_87 
REMARK   25  A    between atoms: C_50  and  C_53 
REMARK       I    between atoms: N_51  and  C_54 
REMARK   26  A    between atoms: N_51  and  C_57 
REMARK   27  A    between atoms: C_53  and  C_54 
REMARK   28  A    between atoms: O_60  and  C_65 
REMARK   29  A    between atoms: C_62  and  C_76 
REMARK   30  A    between atoms: O_64  and  C_76 
REMARK   31  A    between atoms: O_66  and  C_67 
REMARK   32  A    between atoms: C_67  and  C_71 
REMARK   33  A    between atoms: C_71  and  C_74 
REMARK       I    between atoms: N_72  and  C_75 
REMARK   34  A    between atoms: N_72  and  C_78 
REMARK   35  A    between atoms: C_74  and  C_75 
REMARK   36  A    between atoms: O_81  and  C_86 
REMARK   37  A    between atoms: C_83  and  C_98 
REMARK   38  A    between atoms: O_85  and  C_98 
REMARK   39  A    between atoms: O_87  and  C_95 
REMARK   40  A    between atoms: O_88  and  C_89 
REMARK   41  A    between atoms: C_89  and  C_93 
REMARK   42  A    between atoms: C_93  and  C_96 
REMARK       I    between atoms: N_94  and  C_97 
REMARK   43  A    between atoms: N_94  and  C_100 
REMARK   44  A    between atoms: C_96  and  C_97 
ROOT
ATOM      1  C   UNL     1       0.578   0.627  14.780  1.00  0.00     0.186 C 
ATOM      2  C   UNL     1      -0.344   1.467  13.869  1.00  0.00     0.179 C 
ATOM      3  C   UNL     1       1.785   1.464  15.245  1.00  0.00     0.187 C 
ATOM      4  C   UNL     1       2.467   2.105  14.019  1.00  0.00     0.303 C 
ATOM      5  C   UNL     1       1.442   3.009  13.246  1.00  0.00     0.296 C 
ATOM      6  O   UNL     1       0.102   2.833  13.719  1.00  0.00    -0.349 OA
ENDROOT
BRANCH   1   7
ATOM      7  O   UNL     1      -0.150   0.174  15.932  1.00  0.00    -0.348 OA
BRANCH   7   8
ATOM      8  C   UNL     1      -0.347  -1.242  16.022  1.00  0.00     0.286 C 
ATOM      9  O   UNL     1       0.384  -1.832  14.942  1.00  0.00    -0.349 OA
ATOM     10  C   UNL     1       0.332  -3.269  14.887  1.00  0.00     0.180 C 
ATOM     11  C   UNL     1      -1.107  -3.832  14.922  1.00  0.00     0.186 C 
ATOM     12  C   UNL     1      -2.131  -2.687  14.879  1.00  0.00     0.177 C 
ATOM     13  C   UNL     1      -1.860  -1.615  15.944  1.00  0.00     0.170 C 
BRANCH  10  14
ATOM     14  C   UNL     1       1.215  -3.886  15.983  1.00  0.00     0.198 C 
BRANCH  14  15
ATOM     15  O   UNL     1       2.519  -3.310  15.981  1.00  0.00    -0.398 OA
ATOM     16  H   UNL     1       3.120  -3.919  16.451  1.00  0.00     0.209 HD
ENDBRANCH  14  15
ENDBRANCH  10  14
BRANCH  11  17
ATOM     17  O   UNL     1      -1.290  -4.644  13.752  1.00  0.00    -0.348 OA
BRANCH  17  18
ATOM     18  C   UNL     1      -2.193  -5.747  13.862  1.00  0.00     0.286 C 
ATOM     19  O   UNL     1      -1.621  -6.656  14.795  1.00  0.00    -0.352 OA
ATOM     20  C   UNL     1      -2.452  -7.786  15.118  1.00  0.00     0.150 C 
ATOM     21  C   UNL     1      -3.349  -8.245  13.963  1.00  0.00     0.068 C 
ATOM     22  C   UNL     1      -2.700  -7.943  12.623  1.00  0.00     0.148 C 
ATOM     23  C   UNL     1      -2.446  -6.425  12.480  1.00  0.00     0.168 C 
BRANCH  20  24
ATOM     24  C   UNL     1      -3.272  -7.456  16.373  1.00  0.00     0.196 C 
BRANCH  24  25
ATOM     25  O   UNL     1      -4.602  -7.949  16.235  1.00  0.00    -0.398 OA
ATOM     26  H   UNL     1      -5.162  -7.389  16.810  1.00  0.00     0.209 HD
ENDBRANCH  24  25
ENDBRANCH  20  24
BRANCH  22  27
ATOM     27  O   UNL     1      -1.484  -8.693  12.536  1.00  0.00    -0.393 OA
ATOM     28  H   UNL     1      -1.236  -8.694  11.592  1.00  0.00     0.210 HD
ENDBRANCH  22  27
BRANCH  23  29
ATOM     29  N   UNL     1      -1.405  -6.148  11.480  1.00  0.00    -0.349 N 
ATOM     30  C   UNL     1      -1.753  -5.679  10.234  1.00  0.00     0.218 C 
ATOM     31  O   UNL     1      -2.916  -5.683   9.838  1.00  0.00    -0.274 OA
ATOM     32  H   UNL     1      -0.453  -6.028  11.825  1.00  0.00     0.163 HD
BRANCH  30  33
ATOM     33  C   UNL     1      -0.599  -5.158   9.407  1.00  0.00     0.113 C 
BRANCH  33  34
ATOM     34  C   UNL     1       0.267  -6.318   8.922  1.00  0.00     0.119 C 
BRANCH  34  35
ATOM     35  C   UNL     1       1.071  -5.947   7.710  1.00  0.00     0.139 C 
ATOM     36  O   UNL     1       0.674  -5.839   6.565  1.00  0.00    -0.650 OA
BRANCH  35  37
ATOM     37  O   UNL     1       2.369  -5.747   8.012  1.00  0.00    -0.776 OA
ATOM     38  H   UNL     1       2.372  -5.569   8.975  1.00  0.00     0.167 HD
ENDBRANCH  35  37
ENDBRANCH  34  35
ENDBRANCH  33  34
ENDBRANCH  30  33
ENDBRANCH  23  29
ENDBRANCH  17  18
ENDBRANCH  11  17
BRANCH  12  39
ATOM     39  O   UNL     1      -2.189  -2.094  13.568  1.00  0.00    -0.391 OA
ATOM     40  H   UNL     1      -3.113  -2.150  13.259  1.00  0.00     0.210 HD
ENDBRANCH  12  39
BRANCH  13  41
ATOM     41  N   UNL     1      -2.749  -0.478  15.716  1.00  0.00    -0.349 N 
ATOM     42  C   UNL     1      -3.571   0.022  16.694  1.00  0.00     0.218 C 
ATOM     43  O   UNL     1      -3.736  -0.548  17.769  1.00  0.00    -0.274 OA
ATOM     44  H   UNL     1      -2.560   0.091  14.895  1.00  0.00     0.163 HD
BRANCH  42  45
ATOM     45  C   UNL     1      -4.274   1.294  16.286  1.00  0.00     0.113 C 
BRANCH  45  46
ATOM     46  C   UNL     1      -3.431   2.524  16.582  1.00  0.00     0.119 C 
BRANCH  46  47
ATOM     47  C   UNL     1      -3.389   3.437  15.392  1.00  0.00     0.139 C 
ATOM     48  O   UNL     1      -2.593   4.336  15.176  1.00  0.00    -0.650 OA
BRANCH  47  49
ATOM     49  O   UNL     1      -4.354   3.150  14.498  1.00  0.00    -0.776 OA
ATOM     50  H   UNL     1      -4.749   2.317  14.829  1.00  0.00     0.167 HD
ENDBRANCH  47  49
ENDBRANCH  46  47
ENDBRANCH  45  46
ENDBRANCH  42  45
ENDBRANCH  13  41
ENDBRANCH   7   8
ENDBRANCH   1   7
BRANCH   2  51
ATOM     51  C   UNL     1      -0.521   0.814  12.487  1.00  0.00     0.198 C 
BRANCH  51  52
ATOM     52  O   UNL     1       0.190  -0.417  12.413  1.00  0.00    -0.398 OA
ATOM     53  H   UNL     1      -0.449  -1.143  12.547  1.00  0.00     0.209 HD
ENDBRANCH  51  52
ENDBRANCH   2  51
BRANCH   3  54
ATOM     54  O   UNL     1       1.411   2.478  16.194  1.00  0.00    -0.391 OA
ATOM     55  H   UNL     1       0.786   3.082  15.748  1.00  0.00     0.210 HD
ENDBRANCH   3  54
BRANCH   4  56
ATOM     56  N   UNL     1       3.723   2.749  14.444  1.00  0.00     0.090 N 
ATOM     57  H   UNL     1       3.723   2.945  15.437  1.00  0.00     0.313 HD
ATOM     58  H   UNL     1       4.482   2.078  14.282  1.00  0.00     0.313 HD
ENDBRANCH   4  56
BRANCH   5  59
ATOM     59  O   UNL     1       1.761   4.404  13.407  1.00  0.00    -0.348 OA
BRANCH  59  60
ATOM     60  C   UNL     1       1.800   5.165  12.186  1.00  0.00     0.186 C 
ATOM     61  C   UNL     1       2.073   4.272  10.948  1.00  0.00     0.179 C 
ATOM     62  O   UNL     1       1.117   4.411   9.876  1.00  0.00    -0.349 OA
ATOM     63  C   UNL     1       0.734   5.738   9.500  1.00  0.00     0.281 C 
ATOM     64  C   UNL     1       0.477   6.671  10.717  1.00  0.00     0.149 C 
ATOM     65  C   UNL     1       0.452   5.899  12.047  1.00  0.00     0.172 C 
BRANCH  61  66
ATOM     66  C   UNL     1       3.479   4.515  10.373  1.00  0.00     0.198 C 
BRANCH  66  67
ATOM     67  O   UNL     1       4.193   5.452  11.171  1.00  0.00    -0.398 OA
ATOM     68  H   UNL     1       4.133   6.325  10.735  1.00  0.00     0.209 HD
ENDBRANCH  66  67
ENDBRANCH  61  66
BRANCH  63  69
ATOM     69  O   UNL     1      -0.408   5.642   8.656  1.00  0.00    -0.349 OA
BRANCH  69  70
ATOM     70  C   UNL     1      -0.228   6.068   7.300  1.00  0.00     0.186 C 
ATOM     71  C   UNL     1       0.845   5.223   6.570  1.00  0.00     0.176 C 
ATOM     72  O   UNL     1       0.496   4.963   5.186  1.00  0.00    -0.379 OA
ATOM     73  C   UNL     1      -0.082   6.090   4.518  1.00  0.00     0.196 C 
ATOM     74  C   UNL     1      -1.448   6.464   5.121  1.00  0.00     0.139 C 
ATOM     75  C   UNL     1      -1.578   5.922   6.558  1.00  0.00     0.174 C 
BRANCH  71  76
ATOM     76  C   UNL     1       2.244   5.855   6.605  1.00  0.00     0.198 C 
BRANCH  76  77
ATOM     77  O   UNL     1       3.222   4.857   6.887  1.00  0.00    -0.398 OA
ATOM     78  H   UNL     1       2.979   4.465   7.749  1.00  0.00     0.209 HD
ENDBRANCH  76  77
ENDBRANCH  71  76
BRANCH  74  79
ATOM     79  N   UNL     1      -2.545   5.962   4.296  1.00  0.00    -0.352 N 
ATOM     80  C   UNL     1      -3.094   6.693   3.268  1.00  0.00     0.218 C 
ATOM     81  O   UNL     1      -2.664   7.786   2.918  1.00  0.00    -0.274 OA
ATOM     82  H   UNL     1      -3.078   5.188   4.683  1.00  0.00     0.163 HD
BRANCH  80  83
ATOM     83  C   UNL     1      -4.251   5.990   2.594  1.00  0.00     0.113 C 
BRANCH  83  84
ATOM     84  C   UNL     1      -3.999   5.786   1.106  1.00  0.00     0.119 C 
BRANCH  84  85
ATOM     85  C   UNL     1      -5.271   5.916   0.323  1.00  0.00     0.139 C 
ATOM     86  O   UNL     1      -5.695   6.914  -0.235  1.00  0.00    -0.650 OA
BRANCH  85  87
ATOM     87  O   UNL     1      -5.964   4.762   0.285  1.00  0.00    -0.776 OA
ATOM     88  H   UNL     1      -6.406   4.772  -0.589  1.00  0.00     0.167 HD
ENDBRANCH  85  87
ENDBRANCH  84  85
ENDBRANCH  83  84
ENDBRANCH  80  83
ENDBRANCH  74  79
BRANCH  75  89
ATOM     89  O   UNL     1      -2.023   4.551   6.514  1.00  0.00    -0.391 OA
ATOM     90  H   UNL     1      -1.610   4.124   5.740  1.00  0.00     0.210 HD
ENDBRANCH  75  89
ENDBRANCH  69  70
ENDBRANCH  63  69
BRANCH  64  91
ATOM     91  N   UNL     1      -0.510   7.758  10.591  1.00  0.00    -0.251 NA
ATOM     92  C   UNL     1      -0.253   8.916   9.908  1.00  0.00     0.198 C 
ATOM     93  O   UNL     1      -0.913   9.117   8.886  1.00  0.00    -0.280 OA
ATOM     94  H   UNL     1      -1.356   7.401  10.160  1.00  0.00     0.131 HD
BRANCH  92  95
ATOM     95  C   UNL     1       0.670   9.957  10.486  1.00  0.00     0.107 C 
BRANCH  95  96
ATOM     96  C   UNL     1      -0.211  11.002  11.171  1.00  0.00     0.118 C 
BRANCH  96  97
ATOM     97  C   UNL     1      -0.516  12.182  10.301  1.00  0.00     0.139 C 
ATOM     98  O   UNL     1      -1.537  12.850  10.279  1.00  0.00    -0.650 OA
BRANCH  97  99
ATOM     99  O   UNL     1       0.540  12.523   9.532  1.00  0.00    -0.776 OA
ATOM    100  H   UNL     1       0.516  11.877   8.797  1.00  0.00     0.167 HD
ENDBRANCH  97  99
ENDBRANCH  96  97
ENDBRANCH  95  96
ENDBRANCH  92  95
ENDBRANCH  64  91
BRANCH  65 101
ATOM    101  O   UNL     1      -0.643   4.988  12.119  1.00  0.00    -0.391 OA
ATOM    102  H   UNL     1      -0.395   4.205  11.589  1.00  0.00     0.210 HD
ENDBRANCH  65 101
ENDBRANCH  59  60
ENDBRANCH   5  59
TORSDOF 44
ENDMDL
MODEL 7
REMARK VINA RESULT:      -7.8      1.617      1.949
REMARK WARNING: 32 MAX_TORS EXCEEDED!!!
REMARK  44 active torsions:
REMARK  status: ('A' for Active; 'I' for Inactive)
REMARK    1  A    between atoms: C_1  and  O_44 
REMARK    2  A    between atoms: C_2  and  C_6 
REMARK    3  A    between atoms: C_3  and  O_10 
REMARK    4  A    between atoms: C_4  and  N_12 
REMARK    5  A    between atoms: C_5  and  O_14 
REMARK    6  A    between atoms: C_6  and  O_7 
REMARK    7  A    between atoms: O_14  and  C_27 
REMARK    8  A    between atoms: O_16  and  C_21 
REMARK    9  A    between atoms: C_18  and  C_33 
REMARK   10  A    between atoms: O_20  and  C_33 
REMARK   11  A    between atoms: O_22  and  C_30 
REMARK   12  A    between atoms: O_22  and  C_70 
REMARK   13  A    between atoms: O_23  and  C_24 
REMARK   14  A    between atoms: C_24  and  C_28 
REMARK   15  A    between atoms: C_28  and  C_31 
REMARK       I    between atoms: N_29  and  C_32 
REMARK   16  A    between atoms: N_29  and  C_35 
REMARK   17  A    between atoms: C_31  and  C_32 
REMARK   18  A    between atoms: O_38  and  C_43 
REMARK   19  A    between atoms: C_40  and  C_55 
REMARK   20  A    between atoms: O_42  and  C_55 
REMARK   21  A    between atoms: O_44  and  C_52 
REMARK   22  A    between atoms: O_45  and  C_46 
REMARK   23  A    between atoms: C_46  and  C_50 
REMARK   24  A    between atoms: C_49  and  O_87 
REMARK   25  A    between atoms: C_50  and  C_53 
REMARK       I    between atoms: N_51  and  C_54 
REMARK   26  A    between atoms: N_51  and  C_57 
REMARK   27  A    between atoms: C_53  and  C_54 
REMARK   28  A    between atoms: O_60  and  C_65 
REMARK   29  A    between atoms: C_62  and  C_76 
REMARK   30  A    between atoms: O_64  and  C_76 
REMARK   31  A    between atoms: O_66  and  C_67 
REMARK   32  A    between atoms: C_67  and  C_71 
REMARK   33  A    between atoms: C_71  and  C_74 
REMARK       I    between atoms: N_72  and  C_75 
REMARK   34  A    between atoms: N_72  and  C_78 
REMARK   35  A    between atoms: C_74  and  C_75 
REMARK   36  A    between atoms: O_81  and  C_86 
REMARK   37  A    between atoms: C_83  and  C_98 
REMARK   38  A    between atoms: O_85  and  C_98 
REMARK   39  A    between atoms: O_87  and  C_95 
REMARK   40  A    between atoms: O_88  and  C_89 
REMARK   41  A    between atoms: C_89  and  C_93 
REMARK   42  A    between atoms: C_93  and  C_96 
REMARK       I    between atoms: N_94  and  C_97 
REMARK   43  A    between atoms: N_94  and  C_100 
REMARK   44  A    between atoms: C_96  and  C_97 
ROOT
ATOM      1  C   UNL     1       2.009   6.128  10.247  1.00  0.00     0.186 C 
ATOM      2  C   UNL     1       0.665   5.368  10.215  1.00  0.00     0.179 C 
ATOM      3  C   UNL     1       3.142   5.200  10.726  1.00  0.00     0.187 C 
ATOM      4  C   UNL     1       2.727   4.526  12.050  1.00  0.00     0.303 C 
ATOM      5  C   UNL     1       1.403   3.708  11.844  1.00  0.00     0.296 C 
ATOM      6  O   UNL     1       0.794   3.975  10.576  1.00  0.00    -0.349 OA
ENDROOT
BRANCH   1   7
ATOM      7  O   UNL     1       2.328   6.619   8.935  1.00  0.00    -0.348 OA
BRANCH   7   8
ATOM      8  C   UNL     1       1.383   6.298   7.908  1.00  0.00     0.286 C 
ATOM      9  O   UNL     1       2.133   6.066   6.712  1.00  0.00    -0.349 OA
ATOM     10  C   UNL     1       1.347   5.694   5.564  1.00  0.00     0.180 C 
ATOM     11  C   UNL     1       0.181   6.668   5.278  1.00  0.00     0.186 C 
ATOM     12  C   UNL     1       0.241   7.869   6.234  1.00  0.00     0.177 C 
ATOM     13  C   UNL     1       0.346   7.446   7.706  1.00  0.00     0.170 C 
BRANCH  10  14
ATOM     14  C   UNL     1       0.863   4.241   5.688  1.00  0.00     0.198 C 
BRANCH  14  15
ATOM     15  O   UNL     1       0.227   3.804   4.490  1.00  0.00    -0.398 OA
ATOM     16  H   UNL     1       0.917   3.471   3.885  1.00  0.00     0.209 HD
ENDBRANCH  14  15
ENDBRANCH  10  14
BRANCH  11  17
ATOM     17  O   UNL     1       0.332   7.152   3.936  1.00  0.00    -0.348 OA
BRANCH  17  18
ATOM     18  C   UNL     1      -0.617   6.695   2.970  1.00  0.00     0.286 C 
ATOM     19  O   UNL     1      -1.487   5.793   3.643  1.00  0.00    -0.352 OA
ATOM     20  C   UNL     1      -2.586   5.313   2.846  1.00  0.00     0.150 C 
ATOM     21  C   UNL     1      -2.259   5.184   1.354  1.00  0.00     0.068 C 
ATOM     22  C   UNL     1      -0.783   4.887   1.149  1.00  0.00     0.148 C 
ATOM     23  C   UNL     1       0.081   6.018   1.750  1.00  0.00     0.168 C 
BRANCH  20  24
ATOM     24  C   UNL     1      -3.803   6.217   3.083  1.00  0.00     0.196 C 
BRANCH  24  25
ATOM     25  O   UNL     1      -4.919   5.747   2.331  1.00  0.00    -0.398 OA
ATOM     26  H   UNL     1      -5.347   5.059   2.878  1.00  0.00     0.209 HD
ENDBRANCH  24  25
ENDBRANCH  20  24
BRANCH  22  27
ATOM     27  O   UNL     1      -0.495   3.622   1.753  1.00  0.00    -0.393 OA
ATOM     28  H   UNL     1       0.462   3.477   1.627  1.00  0.00     0.210 HD
ENDBRANCH  22  27
BRANCH  23  29
ATOM     29  N   UNL     1       1.449   5.557   2.025  1.00  0.00    -0.349 N 
ATOM     30  C   UNL     1       2.526   6.261   1.535  1.00  0.00     0.218 C 
ATOM     31  O   UNL     1       2.397   7.143   0.691  1.00  0.00    -0.274 OA
ATOM     32  H   UNL     1       1.571   4.912   2.806  1.00  0.00     0.163 HD
BRANCH  30  33
ATOM     33  C   UNL     1       3.862   5.865   2.123  1.00  0.00     0.113 C 
BRANCH  33  34
ATOM     34  C   UNL     1       4.968   6.054   1.088  1.00  0.00     0.119 C 
BRANCH  34  35
ATOM     35  C   UNL     1       5.831   4.831   0.964  1.00  0.00     0.139 C 
ATOM     36  O   UNL     1       5.693   3.768   1.538  1.00  0.00    -0.650 OA
BRANCH  35  37
ATOM     37  O   UNL     1       6.861   5.029   0.117  1.00  0.00    -0.776 OA
ATOM     38  H   UNL     1       7.389   4.205   0.177  1.00  0.00     0.167 HD
ENDBRANCH  35  37
ENDBRANCH  34  35
ENDBRANCH  33  34
ENDBRANCH  30  33
ENDBRANCH  23  29
ENDBRANCH  17  18
ENDBRANCH  11  17
BRANCH  12  39
ATOM     39  O   UNL     1       1.321   8.755   5.884  1.00  0.00    -0.391 OA
ATOM     40  H   UNL     1       2.057   8.584   6.502  1.00  0.00     0.210 HD
ENDBRANCH  12  39
BRANCH  13  41
ATOM     41  N   UNL     1       0.591   8.629   8.528  1.00  0.00    -0.349 N 
ATOM     42  C   UNL     1      -0.419   9.300   9.171  1.00  0.00     0.218 C 
ATOM     43  O   UNL     1      -1.604   9.055   8.969  1.00  0.00    -0.274 OA
ATOM     44  H   UNL     1       1.551   8.793   8.818  1.00  0.00     0.163 HD
BRANCH  42  45
ATOM     45  C   UNL     1       0.084  10.387  10.091  1.00  0.00     0.113 C 
BRANCH  45  46
ATOM     46  C   UNL     1      -0.407  11.761   9.660  1.00  0.00     0.119 C 
BRANCH  46  47
ATOM     47  C   UNL     1      -0.237  11.945   8.180  1.00  0.00     0.139 C 
ATOM     48  O   UNL     1      -1.115  12.096   7.348  1.00  0.00    -0.650 OA
BRANCH  47  49
ATOM     49  O   UNL     1       1.060  11.959   7.817  1.00  0.00    -0.776 OA
ATOM     50  H   UNL     1       1.306  12.907   7.838  1.00  0.00     0.167 HD
ENDBRANCH  47  49
ENDBRANCH  46  47
ENDBRANCH  45  46
ENDBRANCH  42  45
ENDBRANCH  13  41
ENDBRANCH   7   8
ENDBRANCH   1   7
BRANCH   2  51
ATOM     51  C   UNL     1      -0.391   6.049  11.102  1.00  0.00     0.198 C 
BRANCH  51  52
ATOM     52  O   UNL     1       0.117   7.256  11.661  1.00  0.00    -0.398 OA
ATOM     53  H   UNL     1       0.610   7.728  10.962  1.00  0.00     0.209 HD
ENDBRANCH  51  52
ENDBRANCH   2  51
BRANCH   3  54
ATOM     54  O   UNL     1       3.482   4.204   9.745  1.00  0.00    -0.391 OA
ATOM     55  H   UNL     1       2.759   4.179   9.088  1.00  0.00     0.210 HD
ENDBRANCH   3  54
BRANCH   4  56
ATOM     56  N   UNL     1       3.878   3.787  12.599  1.00  0.00     0.090 N 
ATOM     57  H   UNL     1       4.233   3.106  11.940  1.00  0.00     0.313 HD
ATOM     58  H   UNL     1       4.634   4.465  12.749  1.00  0.00     0.313 HD
ENDBRANCH   4  56
BRANCH   5  59
ATOM     59  O   UNL     1       1.658   2.291  11.894  1.00  0.00    -0.348 OA
BRANCH  59  60
ATOM     60  C   UNL     1       1.154   1.622  13.065  1.00  0.00     0.186 C 
ATOM     61  C   UNL     1       0.439   2.598  14.035  1.00  0.00     0.179 C 
ATOM     62  O   UNL     1      -0.897   2.207  14.413  1.00  0.00    -0.349 OA
ATOM     63  C   UNL     1      -1.106   0.841  14.784  1.00  0.00     0.281 C 
ATOM     64  C   UNL     1      -0.382  -0.167  13.847  1.00  0.00     0.149 C 
ATOM     65  C   UNL     1       0.194   0.514  12.594  1.00  0.00     0.172 C 
BRANCH  61  66
ATOM     66  C   UNL     1       1.257   2.822  15.318  1.00  0.00     0.198 C 
BRANCH  66  67
ATOM     67  O   UNL     1       0.568   3.692  16.208  1.00  0.00    -0.398 OA
ATOM     68  H   UNL     1       0.915   4.596  16.073  1.00  0.00     0.209 HD
ENDBRANCH  66  67
ENDBRANCH  61  66
BRANCH  63  69
ATOM     69  O   UNL     1      -2.510   0.608  14.827  1.00  0.00    -0.349 OA
BRANCH  69  70
ATOM     70  C   UNL     1      -3.184   1.035  16.017  1.00  0.00     0.186 C 
ATOM     71  C   UNL     1      -4.366   1.983  15.700  1.00  0.00     0.176 C 
ATOM     72  O   UNL     1      -5.506   1.754  16.568  1.00  0.00    -0.379 OA
ATOM     73  C   UNL     1      -5.149   1.512  17.934  1.00  0.00     0.196 C 
ATOM     74  C   UNL     1      -4.368   0.195  18.087  1.00  0.00     0.139 C 
ATOM     75  C   UNL     1      -3.722  -0.217  16.750  1.00  0.00     0.174 C 
BRANCH  71  76
ATOM     76  C   UNL     1      -3.991   3.470  15.778  1.00  0.00     0.198 C 
BRANCH  76  77
ATOM     77  O   UNL     1      -3.327   3.868  14.580  1.00  0.00    -0.398 OA
ATOM     78  H   UNL     1      -3.973   3.758  13.855  1.00  0.00     0.209 HD
ENDBRANCH  76  77
ENDBRANCH  71  76
BRANCH  74  79
ATOM     79  N   UNL     1      -5.232  -0.878  18.577  1.00  0.00    -0.352 N 
ATOM     80  C   UNL     1      -4.821  -1.787  19.524  1.00  0.00     0.218 C 
ATOM     81  O   UNL     1      -3.731  -1.729  20.081  1.00  0.00    -0.274 OA
ATOM     82  H   UNL     1      -6.033  -1.107  17.995  1.00  0.00     0.163 HD
BRANCH  80  83
ATOM     83  C   UNL     1      -5.867  -2.834  19.832  1.00  0.00     0.113 C 
BRANCH  83  84
ATOM     84  C   UNL     1      -6.582  -3.308  18.573  1.00  0.00     0.119 C 
BRANCH  84  85
ATOM     85  C   UNL     1      -5.677  -4.153  17.728  1.00  0.00     0.139 C 
ATOM     86  O   UNL     1      -4.922  -3.775  16.848  1.00  0.00    -0.650 OA
BRANCH  85  87
ATOM     87  O   UNL     1      -5.773  -5.461  18.034  1.00  0.00    -0.776 OA
ATOM     88  H   UNL     1      -6.717  -5.678  17.884  1.00  0.00     0.167 HD
ENDBRANCH  85  87
ENDBRANCH  84  85
ENDBRANCH  83  84
ENDBRANCH  80  83
ENDBRANCH  74  79
BRANCH  75  89
ATOM     89  O   UNL     1      -4.687  -0.935  15.953  1.00  0.00    -0.391 OA
ATOM     90  H   UNL     1      -4.201  -1.513  15.337  1.00  0.00     0.210 HD
ENDBRANCH  75  89
ENDBRANCH  69  70
ENDBRANCH  63  69
BRANCH  64  91
ATOM     91  N   UNL     1      -0.972  -1.500  13.637  1.00  0.00    -0.251 NA
ATOM     92  C   UNL     1      -0.994  -2.464  14.609  1.00  0.00     0.198 C 
ATOM     93  O   UNL     1      -2.100  -2.792  15.044  1.00  0.00    -0.280 OA
ATOM     94  H   UNL     1      -1.945  -1.404  13.366  1.00  0.00     0.131 HD
BRANCH  92  95
ATOM     95  C   UNL     1       0.268  -3.193  14.992  1.00  0.00     0.107 C 
BRANCH  95  96
ATOM     96  C   UNL     1       0.972  -2.341  16.048  1.00  0.00     0.118 C 
BRANCH  96  97
ATOM     97  C   UNL     1       2.401  -2.043  15.714  1.00  0.00     0.139 C 
ATOM     98  O   UNL     1       2.863  -1.007  15.268  1.00  0.00    -0.650 OA
BRANCH  97  99
ATOM     99  O   UNL     1       3.215  -3.069  16.041  1.00  0.00    -0.776 OA
ATOM    100  H   UNL     1       2.698  -3.866  15.804  1.00  0.00     0.167 HD
ENDBRANCH  97  99
ENDBRANCH  96  97
ENDBRANCH  95  96
ENDBRANCH  92  95
ENDBRANCH  64  91
BRANCH  65 101
ATOM    101  O   UNL     1      -0.829   1.038  11.750  1.00  0.00    -0.391 OA
ATOM    102  H   UNL     1      -0.858   0.471  10.955  1.00  0.00     0.210 HD
ENDBRANCH  65 101
ENDBRANCH  59  60
ENDBRANCH   5  59
TORSDOF 44
ENDMDL
MODEL 8
REMARK VINA RESULT:      -7.8      3.956     12.603
REMARK WARNING: 32 MAX_TORS EXCEEDED!!!
REMARK  44 active torsions:
REMARK  status: ('A' for Active; 'I' for Inactive)
REMARK    1  A    between atoms: C_1  and  O_44 
REMARK    2  A    between atoms: C_2  and  C_6 
REMARK    3  A    between atoms: C_3  and  O_10 
REMARK    4  A    between atoms: C_4  and  N_12 
REMARK    5  A    between atoms: C_5  and  O_14 
REMARK    6  A    between atoms: C_6  and  O_7 
REMARK    7  A    between atoms: O_14  and  C_27 
REMARK    8  A    between atoms: O_16  and  C_21 
REMARK    9  A    between atoms: C_18  and  C_33 
REMARK   10  A    between atoms: O_20  and  C_33 
REMARK   11  A    between atoms: O_22  and  C_30 
REMARK   12  A    between atoms: O_22  and  C_70 
REMARK   13  A    between atoms: O_23  and  C_24 
REMARK   14  A    between atoms: C_24  and  C_28 
REMARK   15  A    between atoms: C_28  and  C_31 
REMARK       I    between atoms: N_29  and  C_32 
REMARK   16  A    between atoms: N_29  and  C_35 
REMARK   17  A    between atoms: C_31  and  C_32 
REMARK   18  A    between atoms: O_38  and  C_43 
REMARK   19  A    between atoms: C_40  and  C_55 
REMARK   20  A    between atoms: O_42  and  C_55 
REMARK   21  A    between atoms: O_44  and  C_52 
REMARK   22  A    between atoms: O_45  and  C_46 
REMARK   23  A    between atoms: C_46  and  C_50 
REMARK   24  A    between atoms: C_49  and  O_87 
REMARK   25  A    between atoms: C_50  and  C_53 
REMARK       I    between atoms: N_51  and  C_54 
REMARK   26  A    between atoms: N_51  and  C_57 
REMARK   27  A    between atoms: C_53  and  C_54 
REMARK   28  A    between atoms: O_60  and  C_65 
REMARK   29  A    between atoms: C_62  and  C_76 
REMARK   30  A    between atoms: O_64  and  C_76 
REMARK   31  A    between atoms: O_66  and  C_67 
REMARK   32  A    between atoms: C_67  and  C_71 
REMARK   33  A    between atoms: C_71  and  C_74 
REMARK       I    between atoms: N_72  and  C_75 
REMARK   34  A    between atoms: N_72  and  C_78 
REMARK   35  A    between atoms: C_74  and  C_75 
REMARK   36  A    between atoms: O_81  and  C_86 
REMARK   37  A    between atoms: C_83  and  C_98 
REMARK   38  A    between atoms: O_85  and  C_98 
REMARK   39  A    between atoms: O_87  and  C_95 
REMARK   40  A    between atoms: O_88  and  C_89 
REMARK   41  A    between atoms: C_89  and  C_93 
REMARK   42  A    between atoms: C_93  and  C_96 
REMARK       I    between atoms: N_94  and  C_97 
REMARK   43  A    between atoms: N_94  and  C_100 
REMARK   44  A    between atoms: C_96  and  C_97 
ROOT
ATOM      1  C   UNL     1      -0.089  -1.108  14.974  1.00  0.00     0.186 C 
ATOM      2  C   UNL     1      -0.922   0.029  14.341  1.00  0.00     0.179 C 
ATOM      3  C   UNL     1       1.187  -0.544  15.626  1.00  0.00     0.187 C 
ATOM      4  C   UNL     1       1.935   0.340  14.606  1.00  0.00     0.303 C 
ATOM      5  C   UNL     1       1.005   1.510  14.125  1.00  0.00     0.296 C 
ATOM      6  O   UNL     1      -0.349   1.337  14.558  1.00  0.00    -0.349 OA
ENDROOT
BRANCH   1   7
ATOM      7  O   UNL     1      -0.866  -1.788  15.974  1.00  0.00    -0.348 OA
BRANCH   7   8
ATOM      8  C   UNL     1      -1.201  -3.148  15.678  1.00  0.00     0.286 C 
ATOM      9  O   UNL     1      -0.449  -3.518  14.517  1.00  0.00    -0.349 OA
ATOM     10  C   UNL     1      -0.631  -4.878  14.084  1.00  0.00     0.180 C 
ATOM     11  C   UNL     1      -2.115  -5.269  13.899  1.00  0.00     0.186 C 
ATOM     12  C   UNL     1      -3.020  -4.045  14.110  1.00  0.00     0.177 C 
ATOM     13  C   UNL     1      -2.732  -3.320  15.431  1.00  0.00     0.170 C 
BRANCH  10  14
ATOM     14  C   UNL     1       0.105  -5.849  15.020  1.00  0.00     0.198 C 
BRANCH  14  15
ATOM     15  O   UNL     1      -0.786  -6.817  15.565  1.00  0.00    -0.398 OA
ATOM     16  H   UNL     1      -1.645  -6.730  15.109  1.00  0.00     0.209 HD
ENDBRANCH  14  15
ENDBRANCH  10  14
BRANCH  11  17
ATOM     17  O   UNL     1      -2.284  -5.728  12.550  1.00  0.00    -0.348 OA
BRANCH  17  18
ATOM     18  C   UNL     1      -2.858  -7.025  12.372  1.00  0.00     0.286 C 
ATOM     19  O   UNL     1      -2.193  -7.896  13.280  1.00  0.00    -0.352 OA
ATOM     20  C   UNL     1      -2.720  -9.235  13.320  1.00  0.00     0.150 C 
ATOM     21  C   UNL     1      -3.289  -9.718  11.981  1.00  0.00     0.068 C 
ATOM     22  C   UNL     1      -2.569  -9.054  10.819  1.00  0.00     0.148 C 
ATOM     23  C   UNL     1      -2.723  -7.519  10.899  1.00  0.00     0.168 C 
BRANCH  20  24
ATOM     24  C   UNL     1      -3.763  -9.324  14.442  1.00  0.00     0.196 C 
BRANCH  24  25
ATOM     25  O   UNL     1      -3.667  -8.184  15.293  1.00  0.00    -0.398 OA
ATOM     26  H   UNL     1      -3.144  -8.465  16.070  1.00  0.00     0.209 HD
ENDBRANCH  24  25
ENDBRANCH  20  24
BRANCH  22  27
ATOM     27  O   UNL     1      -1.195  -9.452  10.860  1.00  0.00    -0.393 OA
ATOM     28  H   UNL     1      -0.677  -8.624  10.872  1.00  0.00     0.210 HD
ENDBRANCH  22  27
BRANCH  23  29
ATOM     29  N   UNL     1      -1.670  -6.835  10.134  1.00  0.00    -0.349 N 
ATOM     30  C   UNL     1      -1.950  -5.663   9.470  1.00  0.00     0.218 C 
ATOM     31  O   UNL     1      -3.101  -5.268   9.304  1.00  0.00    -0.274 OA
ATOM     32  H   UNL     1      -0.705  -7.081  10.356  1.00  0.00     0.163 HD
BRANCH  30  33
ATOM     33  C   UNL     1      -0.737  -4.910   8.973  1.00  0.00     0.113 C 
BRANCH  33  34
ATOM     34  C   UNL     1      -0.094  -5.657   7.807  1.00  0.00     0.119 C 
BRANCH  34  35
ATOM     35  C   UNL     1       1.171  -6.352   8.218  1.00  0.00     0.139 C 
ATOM     36  O   UNL     1       2.307  -5.921   8.148  1.00  0.00    -0.650 OA
BRANCH  35  37
ATOM     37  O   UNL     1       0.932  -7.593   8.687  1.00  0.00    -0.776 OA
ATOM     38  H   UNL     1       1.737  -7.821   9.198  1.00  0.00     0.167 HD
ENDBRANCH  35  37
ENDBRANCH  34  35
ENDBRANCH  33  34
ENDBRANCH  30  33
ENDBRANCH  23  29
ENDBRANCH  17  18
ENDBRANCH  11  17
BRANCH  12  39
ATOM     39  O   UNL     1      -2.923  -3.133  13.000  1.00  0.00    -0.391 OA
ATOM     40  H   UNL     1      -2.298  -2.427  13.251  1.00  0.00     0.210 HD
ENDBRANCH  12  39
BRANCH  13  41
ATOM     41  N   UNL     1      -3.491  -2.071  15.468  1.00  0.00    -0.349 N 
ATOM     42  C   UNL     1      -4.139  -1.636  16.596  1.00  0.00     0.218 C 
ATOM     43  O   UNL     1      -4.264  -2.339  17.595  1.00  0.00    -0.274 OA
ATOM     44  H   UNL     1      -3.317  -1.410  14.716  1.00  0.00     0.163 HD
BRANCH  42  45
ATOM     45  C   UNL     1      -4.716  -0.249  16.451  1.00  0.00     0.113 C 
BRANCH  45  46
ATOM     46  C   UNL     1      -3.667   0.825  16.689  1.00  0.00     0.119 C 
BRANCH  46  47
ATOM     47  C   UNL     1      -3.971   2.053  15.883  1.00  0.00     0.139 C 
ATOM     48  O   UNL     1      -4.232   3.168  16.302  1.00  0.00    -0.650 OA
BRANCH  47  49
ATOM     49  O   UNL     1      -3.903   1.820  14.558  1.00  0.00    -0.776 OA
ATOM     50  H   UNL     1      -3.026   2.172  14.297  1.00  0.00     0.167 HD
ENDBRANCH  47  49
ENDBRANCH  46  47
ENDBRANCH  45  46
ENDBRANCH  42  45
ENDBRANCH  13  41
ENDBRANCH   7   8
ENDBRANCH   1   7
BRANCH   2  51
ATOM     51  C   UNL     1      -1.150  -0.207  12.838  1.00  0.00     0.198 C 
BRANCH  51  52
ATOM     52  O   UNL     1      -0.634  -1.472  12.438  1.00  0.00    -0.398 OA
ATOM     53  H   UNL     1      -1.383  -2.022  12.137  1.00  0.00     0.209 HD
ENDBRANCH  51  52
ENDBRANCH   2  51
BRANCH   3  54
ATOM     54  O   UNL     1       0.903   0.206  16.821  1.00  0.00    -0.391 OA
ATOM     55  H   UNL     1       1.430   1.028  16.785  1.00  0.00     0.210 HD
ENDBRANCH   3  54
BRANCH   4  56
ATOM     56  N   UNL     1       3.242   0.726  15.167  1.00  0.00     0.090 N 
ATOM     57  H   UNL     1       3.961   0.052  14.937  1.00  0.00     0.313 HD
ATOM     58  H   UNL     1       3.519   1.607  14.721  1.00  0.00     0.313 HD
ENDBRANCH   4  56
BRANCH   5  59
ATOM     59  O   UNL     1       1.452   2.774  14.652  1.00  0.00    -0.348 OA
BRANCH  59  60
ATOM     60  C   UNL     1       1.688   3.796  13.666  1.00  0.00     0.186 C 
ATOM     61  C   UNL     1       1.809   3.211  12.234  1.00  0.00     0.179 C 
ATOM     62  O   UNL     1       0.938   3.816  11.256  1.00  0.00    -0.349 OA
ATOM     63  C   UNL     1       0.852   5.244  11.241  1.00  0.00     0.281 C 
ATOM     64  C   UNL     1       0.755   5.868  12.662  1.00  0.00     0.149 C 
ATOM     65  C   UNL     1       0.528   4.805  13.750  1.00  0.00     0.172 C 
BRANCH  61  66
ATOM     66  C   UNL     1       3.253   3.292  11.710  1.00  0.00     0.198 C 
BRANCH  66  67
ATOM     67  O   UNL     1       4.124   3.804  12.712  1.00  0.00    -0.398 OA
ATOM     68  H   UNL     1       4.994   3.374  12.602  1.00  0.00     0.209 HD
ENDBRANCH  66  67
ENDBRANCH  61  66
BRANCH  63  69
ATOM     69  O   UNL     1      -0.257   5.609  10.426  1.00  0.00    -0.349 OA
BRANCH  69  70
ATOM     70  C   UNL     1       0.037   6.432   9.292  1.00  0.00     0.186 C 
ATOM     71  C   UNL     1       1.548   6.426   8.953  1.00  0.00     0.176 C 
ATOM     72  O   UNL     1       1.793   6.437   7.523  1.00  0.00    -0.379 OA
ATOM     73  C   UNL     1       0.915   7.304   6.796  1.00  0.00     0.196 C 
ATOM     74  C   UNL     1      -0.542   6.815   6.861  1.00  0.00     0.139 C 
ATOM     75  C   UNL     1      -0.756   5.893   8.078  1.00  0.00     0.174 C 
BRANCH  71  76
ATOM     76  C   UNL     1       2.317   7.596   9.584  1.00  0.00     0.198 C 
BRANCH  76  77
ATOM     77  O   UNL     1       1.506   8.769   9.582  1.00  0.00    -0.398 OA
ATOM     78  H   UNL     1       0.718   8.561   9.042  1.00  0.00     0.209 HD
ENDBRANCH  76  77
ENDBRANCH  71  76
BRANCH  74  79
ATOM     79  N   UNL     1      -0.921   6.117   5.632  1.00  0.00    -0.352 N 
ATOM     80  C   UNL     1      -2.231   5.921   5.265  1.00  0.00     0.218 C 
ATOM     81  O   UNL     1      -3.180   6.374   5.895  1.00  0.00    -0.274 OA
ATOM     82  H   UNL     1      -0.203   5.534   5.211  1.00  0.00     0.163 HD
BRANCH  80  83
ATOM     83  C   UNL     1      -2.374   5.129   3.985  1.00  0.00     0.113 C 
BRANCH  83  84
ATOM     84  C   UNL     1      -1.046   4.535   3.535  1.00  0.00     0.119 C 
BRANCH  84  85
ATOM     85  C   UNL     1      -1.232   3.147   3.001  1.00  0.00     0.139 C 
ATOM     86  O   UNL     1      -1.153   2.787   1.838  1.00  0.00    -0.650 OA
BRANCH  85  87
ATOM     87  O   UNL     1      -1.520   2.263   3.974  1.00  0.00    -0.776 OA
ATOM     88  H   UNL     1      -1.049   2.606   4.762  1.00  0.00     0.167 HD
ENDBRANCH  85  87
ENDBRANCH  84  85
ENDBRANCH  83  84
ENDBRANCH  80  83
ENDBRANCH  74  79
BRANCH  75  89
ATOM     89  O   UNL     1      -0.366   4.548   7.734  1.00  0.00    -0.391 OA
ATOM     90  H   UNL     1      -0.015   4.120   8.537  1.00  0.00     0.210 HD
ENDBRANCH  75  89
ENDBRANCH  69  70
ENDBRANCH  63  69
BRANCH  64  91
ATOM     91  N   UNL     1       0.021   7.133  12.841  1.00  0.00    -0.251 NA
ATOM     92  C   UNL     1       0.648   8.346  12.944  1.00  0.00     0.198 C 
ATOM     93  O   UNL     1       0.455   9.152  12.032  1.00  0.00    -0.280 OA
ATOM     94  H   UNL     1      -0.631   7.260  12.074  1.00  0.00     0.131 HD
BRANCH  92  95
ATOM     95  C   UNL     1       1.392   8.717  14.201  1.00  0.00     0.107 C 
BRANCH  95  96
ATOM     96  C   UNL     1       2.880   8.728  13.850  1.00  0.00     0.118 C 
BRANCH  96  97
ATOM     97  C   UNL     1       3.551   7.407  14.071  1.00  0.00     0.139 C 
ATOM     98  O   UNL     1       3.538   6.723  15.081  1.00  0.00    -0.650 OA
BRANCH  97  99
ATOM     99  O   UNL     1       4.158   6.961  12.951  1.00  0.00    -0.776 OA
ATOM    100  H   UNL     1       3.640   7.364  12.225  1.00  0.00     0.167 HD
ENDBRANCH  97  99
ENDBRANCH  96  97
ENDBRANCH  95  96
ENDBRANCH  92  95
ENDBRANCH  64  91
BRANCH  65 101
ATOM    101  O   UNL     1      -0.734   4.157  13.611  1.00  0.00    -0.391 OA
ATOM    102  H   UNL     1      -0.910   4.082  12.653  1.00  0.00     0.210 HD
ENDBRANCH  65 101
ENDBRANCH  59  60
ENDBRANCH   5  59
TORSDOF 44
ENDMDL
MODEL 9
REMARK VINA RESULT:      -7.8      1.957      3.894
REMARK WARNING: 32 MAX_TORS EXCEEDED!!!
REMARK  44 active torsions:
REMARK  status: ('A' for Active; 'I' for Inactive)
REMARK    1  A    between atoms: C_1  and  O_44 
REMARK    2  A    between atoms: C_2  and  C_6 
REMARK    3  A    between atoms: C_3  and  O_10 
REMARK    4  A    between atoms: C_4  and  N_12 
REMARK    5  A    between atoms: C_5  and  O_14 
REMARK    6  A    between atoms: C_6  and  O_7 
REMARK    7  A    between atoms: O_14  and  C_27 
REMARK    8  A    between atoms: O_16  and  C_21 
REMARK    9  A    between atoms: C_18  and  C_33 
REMARK   10  A    between atoms: O_20  and  C_33 
REMARK   11  A    between atoms: O_22  and  C_30 
REMARK   12  A    between atoms: O_22  and  C_70 
REMARK   13  A    between atoms: O_23  and  C_24 
REMARK   14  A    between atoms: C_24  and  C_28 
REMARK   15  A    between atoms: C_28  and  C_31 
REMARK       I    between atoms: N_29  and  C_32 
REMARK   16  A    between atoms: N_29  and  C_35 
REMARK   17  A    between atoms: C_31  and  C_32 
REMARK   18  A    between atoms: O_38  and  C_43 
REMARK   19  A    between atoms: C_40  and  C_55 
REMARK   20  A    between atoms: O_42  and  C_55 
REMARK   21  A    between atoms: O_44  and  C_52 
REMARK   22  A    between atoms: O_45  and  C_46 
REMARK   23  A    between atoms: C_46  and  C_50 
REMARK   24  A    between atoms: C_49  and  O_87 
REMARK   25  A    between atoms: C_50  and  C_53 
REMARK       I    between atoms: N_51  and  C_54 
REMARK   26  A    between atoms: N_51  and  C_57 
REMARK   27  A    between atoms: C_53  and  C_54 
REMARK   28  A    between atoms: O_60  and  C_65 
REMARK   29  A    between atoms: C_62  and  C_76 
REMARK   30  A    between atoms: O_64  and  C_76 
REMARK   31  A    between atoms: O_66  and  C_67 
REMARK   32  A    between atoms: C_67  and  C_71 
REMARK   33  A    between atoms: C_71  and  C_74 
REMARK       I    between atoms: N_72  and  C_75 
REMARK   34  A    between atoms: N_72  and  C_78 
REMARK   35  A    between atoms: C_74  and  C_75 
REMARK   36  A    between atoms: O_81  and  C_86 
REMARK   37  A    between atoms: C_83  and  C_98 
REMARK   38  A    between atoms: O_85  and  C_98 
REMARK   39  A    between atoms: O_87  and  C_95 
REMARK   40  A    between atoms: O_88  and  C_89 
REMARK   41  A    between atoms: C_89  and  C_93 
REMARK   42  A    between atoms: C_93  and  C_96 
REMARK       I    between atoms: N_94  and  C_97 
REMARK   43  A    between atoms: N_94  and  C_100 
REMARK   44  A    between atoms: C_96  and  C_97 
ROOT
ATOM      1  C   UNL     1       1.721   6.105  10.419  1.00  0.00     0.186 C 
ATOM      2  C   UNL     1       0.442   5.247  10.534  1.00  0.00     0.179 C 
ATOM      3  C   UNL     1       2.968   5.262  10.747  1.00  0.00     0.187 C 
ATOM      4  C   UNL     1       2.763   4.551  12.101  1.00  0.00     0.303 C 
ATOM      5  C   UNL     1       1.488   3.637  12.041  1.00  0.00     0.296 C 
ATOM      6  O   UNL     1       0.715   3.865  10.857  1.00  0.00    -0.349 OA
ENDROOT
BRANCH   1   7
ATOM      7  O   UNL     1       1.846   6.626   9.086  1.00  0.00    -0.348 OA
BRANCH   7   8
ATOM      8  C   UNL     1       0.744   6.356   8.211  1.00  0.00     0.286 C 
ATOM      9  O   UNL     1       1.286   5.729   7.043  1.00  0.00    -0.349 OA
ATOM     10  C   UNL     1       0.314   5.349   6.052  1.00  0.00     0.180 C 
ATOM     11  C   UNL     1      -0.630   6.504   5.645  1.00  0.00     0.186 C 
ATOM     12  C   UNL     1      -0.197   7.813   6.323  1.00  0.00     0.177 C 
ATOM     13  C   UNL     1      -0.026   7.661   7.841  1.00  0.00     0.170 C 
BRANCH  10  14
ATOM     14  C   UNL     1      -0.466   4.105   6.507  1.00  0.00     0.198 C 
BRANCH  14  15
ATOM     15  O   UNL     1      -0.466   3.098   5.499  1.00  0.00    -0.398 OA
ATOM     16  H   UNL     1      -0.866   2.291   5.877  1.00  0.00     0.209 HD
ENDBRANCH  14  15
ENDBRANCH  10  14
BRANCH  11  17
ATOM     17  O   UNL     1      -0.525   6.676   4.224  1.00  0.00    -0.348 OA
BRANCH  17  18
ATOM     18  C   UNL     1       0.502   5.942   3.554  1.00  0.00     0.286 C 
ATOM     19  O   UNL     1       1.422   6.897   3.040  1.00  0.00    -0.352 OA
ATOM     20  C   UNL     1       2.593   6.331   2.423  1.00  0.00     0.150 C 
ATOM     21  C   UNL     1       2.343   4.979   1.745  1.00  0.00     0.068 C 
ATOM     22  C   UNL     1       0.911   4.882   1.247  1.00  0.00     0.148 C 
ATOM     23  C   UNL     1      -0.078   5.037   2.424  1.00  0.00     0.168 C 
BRANCH  20  24
ATOM     24  C   UNL     1       3.711   6.240   3.471  1.00  0.00     0.196 C 
BRANCH  24  25
ATOM     25  O   UNL     1       3.239   6.704   4.734  1.00  0.00    -0.398 OA
ATOM     26  H   UNL     1       3.063   5.906   5.271  1.00  0.00     0.209 HD
ENDBRANCH  24  25
ENDBRANCH  20  24
BRANCH  22  27
ATOM     27  O   UNL     1       0.715   5.894   0.254  1.00  0.00    -0.393 OA
ATOM     28  H   UNL     1       1.472   5.820  -0.358  1.00  0.00     0.210 HD
ENDBRANCH  22  27
BRANCH  23  29
ATOM     29  N   UNL     1      -1.409   5.448   1.954  1.00  0.00    -0.349 N 
ATOM     30  C   UNL     1      -2.537   4.850   2.467  1.00  0.00     0.218 C 
ATOM     31  O   UNL     1      -2.480   3.830   3.148  1.00  0.00    -0.274 OA
ATOM     32  H   UNL     1      -1.475   6.354   1.490  1.00  0.00     0.163 HD
BRANCH  30  33
ATOM     33  C   UNL     1      -3.834   5.551   2.131  1.00  0.00     0.113 C 
BRANCH  33  34
ATOM     34  C   UNL     1      -3.824   6.007   0.674  1.00  0.00     0.119 C 
BRANCH  34  35
ATOM     35  C   UNL     1      -5.207   6.052   0.093  1.00  0.00     0.139 C 
ATOM     36  O   UNL     1      -5.791   7.023  -0.350  1.00  0.00    -0.650 OA
BRANCH  35  37
ATOM     37  O   UNL     1      -5.803   4.843   0.123  1.00  0.00    -0.776 OA
ATOM     38  H   UNL     1      -6.592   4.945  -0.450  1.00  0.00     0.167 HD
ENDBRANCH  35  37
ENDBRANCH  34  35
ENDBRANCH  33  34
ENDBRANCH  30  33
ENDBRANCH  23  29
ENDBRANCH  17  18
ENDBRANCH  11  17
BRANCH  12  39
ATOM     39  O   UNL     1       1.007   8.330   5.727  1.00  0.00    -0.391 OA
ATOM     40  H   UNL     1       1.619   8.564   6.451  1.00  0.00     0.210 HD
ENDBRANCH  12  39
BRANCH  13  41
ATOM     41  N   UNL     1       0.567   8.883   8.381  1.00  0.00    -0.349 N 
ATOM     42  C   UNL     1      -0.186   9.977   8.722  1.00  0.00     0.218 C 
ATOM     43  O   UNL     1      -1.379  10.067   8.446  1.00  0.00    -0.274 OA
ATOM     44  H   UNL     1       1.517   8.811   8.733  1.00  0.00     0.163 HD
BRANCH  42  45
ATOM     45  C   UNL     1       0.614  11.057   9.409  1.00  0.00     0.113 C 
BRANCH  45  46
ATOM     46  C   UNL     1      -0.056  11.526  10.691  1.00  0.00     0.119 C 
BRANCH  46  47
ATOM     47  C   UNL     1      -0.591  12.919  10.532  1.00  0.00     0.139 C 
ATOM     48  O   UNL     1      -0.909  13.475   9.495  1.00  0.00    -0.650 OA
BRANCH  47  49
ATOM     49  O   UNL     1      -0.728  13.548  11.716  1.00  0.00    -0.776 OA
ATOM     50  H   UNL     1      -0.295  14.416  11.579  1.00  0.00     0.167 HD
ENDBRANCH  47  49
ENDBRANCH  46  47
ENDBRANCH  45  46
ENDBRANCH  42  45
ENDBRANCH  13  41
ENDBRANCH   7   8
ENDBRANCH   1   7
BRANCH   2  51
ATOM     51  C   UNL     1      -0.548   5.842  11.549  1.00  0.00     0.198 C 
BRANCH  51  52
ATOM     52  O   UNL     1       0.081   6.837  12.349  1.00  0.00    -0.398 OA
ATOM     53  H   UNL     1      -0.618   7.346  12.802  1.00  0.00     0.209 HD
ENDBRANCH  51  52
ENDBRANCH   2  51
BRANCH   3  54
ATOM     54  O   UNL     1       3.261   4.299   9.718  1.00  0.00    -0.391 OA
ATOM     55  H   UNL     1       2.438   3.806   9.533  1.00  0.00     0.210 HD
ENDBRANCH   3  54
BRANCH   4  56
ATOM     56  N   UNL     1       4.023   3.897  12.500  1.00  0.00     0.090 N 
ATOM     57  H   UNL     1       4.011   2.907  12.291  1.00  0.00     0.313 HD
ATOM     58  H   UNL     1       4.773   4.304  11.931  1.00  0.00     0.313 HD
ENDBRANCH   4  56
BRANCH   5  59
ATOM     59  O   UNL     1       1.851   2.244  12.039  1.00  0.00    -0.348 OA
BRANCH  59  60
ATOM     60  C   UNL     1       1.343   1.481  13.150  1.00  0.00     0.186 C 
ATOM     61  C   UNL     1       0.625   2.374  14.194  1.00  0.00     0.179 C 
ATOM     62  O   UNL     1      -0.713   1.954  14.534  1.00  0.00    -0.349 OA
ATOM     63  C   UNL     1      -0.924   0.562  14.791  1.00  0.00     0.281 C 
ATOM     64  C   UNL     1      -0.196  -0.366  13.778  1.00  0.00     0.149 C 
ATOM     65  C   UNL     1       0.384   0.415  12.586  1.00  0.00     0.172 C 
BRANCH  61  66
ATOM     66  C   UNL     1       1.437   2.492  15.494  1.00  0.00     0.198 C 
BRANCH  66  67
ATOM     67  O   UNL     1       2.696   3.108  15.246  1.00  0.00    -0.398 OA
ATOM     68  H   UNL     1       2.875   3.730  15.977  1.00  0.00     0.209 HD
ENDBRANCH  66  67
ENDBRANCH  61  66
BRANCH  63  69
ATOM     69  O   UNL     1      -2.327   0.326  14.810  1.00  0.00    -0.349 OA
BRANCH  69  70
ATOM     70  C   UNL     1      -3.013   0.694  16.013  1.00  0.00     0.186 C 
ATOM     71  C   UNL     1      -4.301   1.500  15.717  1.00  0.00     0.176 C 
ATOM     72  O   UNL     1      -5.385   1.160  16.620  1.00  0.00    -0.379 OA
ATOM     73  C   UNL     1      -4.967   0.981  17.978  1.00  0.00     0.196 C 
ATOM     74  C   UNL     1      -4.039  -0.239  18.127  1.00  0.00     0.139 C 
ATOM     75  C   UNL     1      -3.388  -0.598  16.777  1.00  0.00     0.174 C 
BRANCH  71  76
ATOM     76  C   UNL     1      -4.092   3.020  15.765  1.00  0.00     0.198 C 
BRANCH  76  77
ATOM     77  O   UNL     1      -4.282   3.580  14.468  1.00  0.00    -0.398 OA
ATOM     78  H   UNL     1      -3.449   4.034  14.236  1.00  0.00     0.209 HD
ENDBRANCH  76  77
ENDBRANCH  71  76
BRANCH  74  79
ATOM     79  N   UNL     1      -4.766  -1.393  18.655  1.00  0.00    -0.352 N 
ATOM     80  C   UNL     1      -4.669  -1.792  19.967  1.00  0.00     0.218 C 
ATOM     81  O   UNL     1      -4.029  -1.175  20.811  1.00  0.00    -0.274 OA
ATOM     82  H   UNL     1      -5.111  -2.056  17.967  1.00  0.00     0.163 HD
BRANCH  80  83
ATOM     83  C   UNL     1      -5.468  -3.041  20.266  1.00  0.00     0.113 C 
BRANCH  83  84
ATOM     84  C   UNL     1      -6.143  -3.593  19.017  1.00  0.00     0.119 C 
BRANCH  84  85
ATOM     85  C   UNL     1      -5.270  -4.606  18.339  1.00  0.00     0.139 C 
ATOM     86  O   UNL     1      -4.100  -4.477  18.020  1.00  0.00    -0.650 OA
BRANCH  85  87
ATOM     87  O   UNL     1      -5.928  -5.753  18.085  1.00  0.00    -0.776 OA
ATOM     88  H   UNL     1      -5.219  -6.403  17.895  1.00  0.00     0.167 HD
ENDBRANCH  85  87
ENDBRANCH  84  85
ENDBRANCH  83  84
ENDBRANCH  80  83
ENDBRANCH  74  79
BRANCH  75  89
ATOM     89  O   UNL     1      -4.288  -1.431  16.017  1.00  0.00    -0.391 OA
ATOM     90  H   UNL     1      -3.808  -1.760  15.235  1.00  0.00     0.210 HD
ENDBRANCH  75  89
ENDBRANCH  69  70
ENDBRANCH  63  69
BRANCH  64  91
ATOM     91  N   UNL     1      -0.784  -1.678  13.456  1.00  0.00    -0.251 NA
ATOM     92  C   UNL     1      -0.900  -2.685  14.377  1.00  0.00     0.198 C 
ATOM     93  O   UNL     1      -2.042  -3.013  14.704  1.00  0.00    -0.280 OA
ATOM     94  H   UNL     1      -1.731  -1.552  13.113  1.00  0.00     0.131 HD
BRANCH  92  95
ATOM     95  C   UNL     1       0.316  -3.453  14.826  1.00  0.00     0.107 C 
BRANCH  95  96
ATOM     96  C   UNL     1      -0.176  -4.807  15.337  1.00  0.00     0.118 C 
BRANCH  96  97
ATOM     97  C   UNL     1       0.135  -5.940  14.409  1.00  0.00     0.139 C 
ATOM     98  O   UNL     1      -0.130  -6.028  13.222  1.00  0.00    -0.650 OA
BRANCH  97  99
ATOM     99  O   UNL     1       0.856  -6.903  15.021  1.00  0.00    -0.776 OA
ATOM    100  H   UNL     1       0.212  -7.626  15.165  1.00  0.00     0.167 HD
ENDBRANCH  97  99
ENDBRANCH  96  97
ENDBRANCH  95  96
ENDBRANCH  92  95
ENDBRANCH  64  91
BRANCH  65 101
ATOM    101  O   UNL     1      -0.635   1.007  11.785  1.00  0.00    -0.391 OA
ATOM    102  H   UNL     1      -0.420   1.957  11.709  1.00  0.00     0.210 HD
ENDBRANCH  65 101
ENDBRANCH  59  60
ENDBRANCH   5  59
TORSDOF 44
ENDMDL
