MODEL 1
REMARK VINA RESULT:      -7.4      0.000      0.000
REMARK WARNING: 32 MAX_TORS EXCEEDED!!!
REMARK  40 active torsions:
REMARK  status: ('A' for Active; 'I' for Inactive)
REMARK    1  A    between atoms: C_1  and  O_123 
REMARK    2  A    between atoms: C_2  and  C_6 
REMARK    3  A    between atoms: C_3  and  O_10 
REMARK    4  A    between atoms: C_4  and  N_12 
REMARK    5  A    between atoms: C_5  and  O_124 
REMARK    6  A    between atoms: C_6  and  O_7 
REMARK    7  A    between atoms: N_12  and  S_13 
REMARK    8  A    between atoms: S_13  and  C_17 
REMARK    9  A    between atoms: C_20  and  N_23 
REMARK       I    between atoms: N_23  and  C_24 
REMARK   10  A    between atoms: O_29  and  C_33 
REMARK   11  A    between atoms: O_30  and  C_34 
REMARK   12  A    between atoms: C_31  and  C_34 
REMARK   13  A    between atoms: C_36  and  O_124 
REMARK   14  A    between atoms: N_37  and  C_40 
REMARK   15  A    between atoms: C_38  and  O_125 
REMARK   16  A    between atoms: O_42  and  C_46 
REMARK   17  A    between atoms: O_43  and  C_47 
REMARK   18  A    between atoms: C_44  and  C_47 
REMARK   19  A    between atoms: C_49  and  O_125 
REMARK   20  A    between atoms: N_50  and  S_61 
REMARK   21  A    between atoms: N_50  and  C_53 
REMARK   22  A    between atoms: C_51  and  O_126 
REMARK   23  A    between atoms: C_56  and  N_63 
REMARK   24  A    between atoms: C_59  and  S_61 
REMARK       I    between atoms: C_62  and  N_63 
REMARK   25  A    between atoms: O_69  and  C_73 
REMARK   26  A    between atoms: O_70  and  C_74 
REMARK   27  A    between atoms: C_71  and  C_74 
REMARK   28  A    between atoms: C_76  and  O_126 
REMARK   29  A    between atoms: N_77  and  S_88 
REMARK   30  A    between atoms: N_77  and  C_80 
REMARK   31  A    between atoms: C_83  and  N_90 
REMARK   32  A    between atoms: C_86  and  S_88 
REMARK       I    between atoms: C_89  and  N_90 
REMARK   33  A    between atoms: O_96  and  C_100 
REMARK   34  A    between atoms: O_97  and  C_101 
REMARK   35  A    between atoms: C_98  and  C_101 
REMARK   36  A    between atoms: N_104  and  S_115 
REMARK   37  A    between atoms: N_104  and  C_107 
REMARK   38  A    between atoms: C_105  and  O_123 
REMARK   39  A    between atoms: C_110  and  N_117 
REMARK   40  A    between atoms: C_113  and  S_115 
REMARK       I    between atoms: C_116  and  N_117 
ROOT
HETATM    1  C   UNL     1      24.679  67.269  26.013  1.00  0.00     0.179 C 
HETATM    2  C   UNL     1      25.631  69.573  25.512  1.00  0.00     0.187 C 
HETATM    3  C   UNL     1      24.545  68.791  26.276  1.00  0.00     0.186 C 
HETATM    4  C   UNL     1      27.089  67.636  26.378  1.00  0.00     0.296 C 
HETATM    5  O   UNL     1      26.036  66.861  25.794  1.00  0.00    -0.349 OA
HETATM    6  C   UNL     1      27.014  69.140  26.036  1.00  0.00     0.303 C 
ENDROOT
BRANCH   3   7
HETATM    7  O   UNL     1      23.241  69.344  26.078  1.00  0.00    -0.349 OA
BRANCH   7   8
HETATM    8  C   UNL     1      22.201  68.459  25.684  1.00  0.00     0.282 C 
HETATM    9  C   UNL     1      21.595  68.906  24.348  1.00  0.00     0.157 C 
HETATM   10  C   UNL     1      20.347  68.048  24.078  1.00  0.00     0.173 C 
HETATM   11  C   UNL     1      19.393  68.155  25.291  1.00  0.00     0.186 C 
HETATM   12  C   UNL     1      20.115  67.813  26.616  1.00  0.00     0.179 C 
HETATM   13  O   UNL     1      21.276  68.623  26.745  1.00  0.00    -0.349 OA
BRANCH   9  14
HETATM   14  N   UNL     1      22.602  68.765  23.278  1.00  0.00    -0.208 NA
HETATM   15  H   UNL     1      23.440  69.262  23.545  1.00  0.00     0.140 HD
BRANCH  14  16
HETATM   16  S   UNL     1      22.075  69.525  21.819  1.00  0.00     0.215 S 
HETATM   17  O   UNL     1      20.806  70.594  22.079  1.00  0.00    -0.211 OA
HETATM   18  O   UNL     1      23.365  70.325  21.100  1.00  0.00    -0.211 OA
BRANCH  16  19
HETATM   19  C   UNL     1      21.512  68.216  20.706  1.00  0.00     0.134 C 
HETATM   20  C   UNL     1      22.675  67.613  19.911  1.00  0.00     0.024 C 
HETATM   21  C   UNL     1      22.207  66.487  18.984  1.00  0.00     0.018 C 
HETATM   22  C   UNL     1      21.136  66.984  18.008  1.00  0.00     0.240 C 
HETATM   23  C   UNL     1      19.957  67.578  18.794  1.00  0.00     0.032 C 
HETATM   24  C   UNL     1      20.414  68.692  19.744  1.00  0.00     0.018 C 
BRANCH  22  25
HETATM   25  N   UNL     1      20.707  65.880  17.122  1.00  0.00     0.133 N 
HETATM   26  C   UNL     1      19.881  66.296  15.968  1.00  0.00     0.352 C 
HETATM   27  O   UNL     1      19.213  65.301  15.224  1.00  0.00    -0.189 OA
HETATM   28  C   UNL     1      20.623  67.231  15.005  1.00  0.00     0.085 C 
HETATM   29  H   UNL     1      20.185  65.211  17.670  1.00  0.00     0.320 HD
ENDBRANCH  22  25
ENDBRANCH  16  19
ENDBRANCH  14  16
ENDBRANCH   9  14
BRANCH  10  30
HETATM   30  O   UNL     1      20.782  66.726  23.821  1.00  0.00    -0.391 OA
HETATM   31  H   UNL     1      20.105  66.279  23.307  1.00  0.00     0.210 HD
ENDBRANCH  10  30
BRANCH  11  32
HETATM   32  O   UNL     1      18.149  67.479  25.074  1.00  0.00    -0.349 OA
BRANCH  32  33
HETATM   33  C   UNL     1      17.012  68.275  24.760  1.00  0.00     0.281 C 
HETATM   34  O   UNL     1      17.480  69.572  25.085  1.00  0.00    -0.352 OA
HETATM   35  C   UNL     1      16.472  70.559  24.929  1.00  0.00     0.150 C 
HETATM   36  C   UNL     1      16.065  70.636  23.447  1.00  0.00     0.067 C 
HETATM   37  C   UNL     1      15.624  69.260  22.921  1.00  0.00     0.144 C 
HETATM   38  C   UNL     1      16.662  68.173  23.267  1.00  0.00     0.155 C 
BRANCH  35  39
HETATM   39  C   UNL     1      17.006  71.911  25.415  1.00  0.00     0.196 C 
BRANCH  39  40
HETATM   40  O   UNL     1      18.323  71.763  25.903  1.00  0.00    -0.398 OA
HETATM   41  H   UNL     1      18.933  72.081  25.234  1.00  0.00     0.209 HD
ENDBRANCH  39  40
ENDBRANCH  35  39
BRANCH  37  42
HETATM   42  O   UNL     1      14.366  68.912  23.464  1.00  0.00    -0.394 OA
HETATM   43  H   UNL     1      13.708  68.961  22.767  1.00  0.00     0.210 HD
ENDBRANCH  37  42
BRANCH  38  44
HETATM   44  N   UNL     1      16.151  66.819  22.974  1.00  0.00    -0.208 NA
HETATM   45  H   UNL     1      16.313  66.226  23.775  1.00  0.00     0.140 HD
BRANCH  44  46
HETATM   46  S   UNL     1      16.994  66.054  21.676  1.00  0.00     0.215 S 
HETATM   47  O   UNL     1      18.662  66.191  21.816  1.00  0.00    -0.211 OA
HETATM   48  O   UNL     1      16.550  64.437  21.585  1.00  0.00    -0.211 OA
BRANCH  46  49
HETATM   49  C   UNL     1      16.484  66.891  20.154  1.00  0.00     0.134 C 
HETATM   50  C   UNL     1      14.970  67.143  20.132  1.00  0.00     0.024 C 
HETATM   51  C   UNL     1      14.529  67.862  18.853  1.00  0.00     0.018 C 
HETATM   52  C   UNL     1      14.934  67.076  17.598  1.00  0.00     0.240 C 
HETATM   53  C   UNL     1      16.449  66.835  17.608  1.00  0.00     0.032 C 
HETATM   54  C   UNL     1      16.905  66.127  18.890  1.00  0.00     0.018 C 
BRANCH  52  55
HETATM   55  N   UNL     1      14.536  67.784  16.362  1.00  0.00     0.133 N 
HETATM   56  C   UNL     1      13.073  67.900  16.180  1.00  0.00     0.352 C 
HETATM   57  C   UNL     1      12.385  66.540  16.036  1.00  0.00     0.085 C 
HETATM   58  O   UNL     1      12.568  68.782  15.202  1.00  0.00    -0.189 OA
HETATM   59  H   UNL     1      14.937  68.711  16.377  1.00  0.00     0.320 HD
ENDBRANCH  52  55
ENDBRANCH  46  49
ENDBRANCH  44  46
ENDBRANCH  38  44
ENDBRANCH  32  33
ENDBRANCH  11  32
BRANCH  12  60
HETATM   60  C   UNL     1      19.239  68.107  27.842  1.00  0.00     0.198 C 
BRANCH  60  61
HETATM   61  O   UNL     1      18.678  69.398  27.733  1.00  0.00    -0.398 OA
HETATM   62  H   UNL     1      17.865  69.421  28.243  1.00  0.00     0.209 HD
ENDBRANCH  60  61
ENDBRANCH  12  60
ENDBRANCH   7   8
ENDBRANCH   3   7
BRANCH   1  63
HETATM   63  C   UNL     1      24.007  66.455  27.129  1.00  0.00     0.198 C 
BRANCH  63  64
HETATM   64  O   UNL     1      24.837  65.377  27.505  1.00  0.00    -0.398 OA
HETATM   65  H   UNL     1      25.420  65.673  28.208  1.00  0.00     0.209 HD
ENDBRANCH  63  64
ENDBRANCH   1  63
BRANCH   2  66
HETATM   66  O   UNL     1      25.568  69.355  24.114  1.00  0.00    -0.391 OA
HETATM   67  H   UNL     1      24.674  69.543  23.818  1.00  0.00     0.210 HD
ENDBRANCH   2  66
BRANCH   6  68
HETATM   68  N   UNL     1      28.077  69.508  25.083  1.00  0.00     0.090 N 
HETATM   69  H   UNL     1      28.733  70.131  25.532  1.00  0.00     0.313 HD
HETATM   70  H   UNL     1      28.558  68.674  24.777  1.00  0.00     0.313 HD
ENDBRANCH   6  68
BRANCH   4  71
HETATM   71  O   UNL     1      26.897  67.417  27.775  1.00  0.00    -0.348 OA
BRANCH  71  72
HETATM   72  C   UNL     1      27.659  68.215  28.685  1.00  0.00     0.186 C 
HETATM   73  C   UNL     1      27.490  67.831  30.172  1.00  0.00     0.179 C 
HETATM   74  O   UNL     1      28.150  68.805  30.966  1.00  0.00    -0.349 OA
HETATM   75  C   UNL     1      29.546  68.870  30.726  1.00  0.00     0.282 C 
HETATM   76  C   UNL     1      29.840  69.328  29.288  1.00  0.00     0.157 C 
HETATM   77  C   UNL     1      29.152  68.358  28.307  1.00  0.00     0.173 C 
BRANCH  73  78
HETATM   78  C   UNL     1      26.014  67.820  30.592  1.00  0.00     0.198 C 
BRANCH  78  79
HETATM   79  O   UNL     1      25.420  66.585  30.249  1.00  0.00    -0.398 OA
HETATM   80  H   UNL     1      25.975  65.878  30.585  1.00  0.00     0.209 HD
ENDBRANCH  78  79
ENDBRANCH  73  78
BRANCH  75  81
HETATM   81  O   UNL     1      29.938  69.864  31.666  1.00  0.00    -0.349 OA
BRANCH  81  82
HETATM   82  C   UNL     1      28.950  70.802  32.101  1.00  0.00     0.186 C 
HETATM   83  C   UNL     1      28.904  71.083  33.623  1.00  0.00     0.176 C 
HETATM   84  O   UNL     1      27.821  71.964  33.919  1.00  0.00    -0.379 OA
HETATM   85  C   UNL     1      27.860  73.205  33.227  1.00  0.00     0.191 C 
HETATM   86  C   UNL     1      27.794  72.982  31.707  1.00  0.00     0.126 C 
HETATM   87  C   UNL     1      28.988  72.110  31.284  1.00  0.00     0.170 C 
BRANCH  83  88
HETATM   88  C   UNL     1      28.657  69.798  34.425  1.00  0.00     0.198 C 
BRANCH  88  89
HETATM   89  O   UNL     1      27.740  68.968  33.744  1.00  0.00    -0.398 OA
HETATM   90  H   UNL     1      26.886  69.404  33.736  1.00  0.00     0.209 HD
ENDBRANCH  88  89
ENDBRANCH  83  88
BRANCH  86  91
HETATM   91  N   UNL     1      27.764  74.280  30.999  1.00  0.00    -0.210 NA
HETATM   92  H   UNL     1      27.231  74.937  31.551  1.00  0.00     0.140 HD
BRANCH  91  93
HETATM   93  S   UNL     1      26.914  74.161  29.497  1.00  0.00     0.215 S 
HETATM   94  O   UNL     1      26.259  75.628  29.005  1.00  0.00    -0.211 OA
HETATM   95  O   UNL     1      27.925  73.564  28.294  1.00  0.00    -0.211 OA
BRANCH  93  96
HETATM   96  C   UNL     1      25.551  72.990  29.706  1.00  0.00     0.134 C 
HETATM   97  C   UNL     1      25.749  71.712  28.881  1.00  0.00     0.024 C 
HETATM   98  C   UNL     1      24.600  70.724  29.102  1.00  0.00     0.018 C 
HETATM   99  C   UNL     1      23.239  71.347  28.754  1.00  0.00     0.240 C 
HETATM  100  C   UNL     1      23.032  72.623  29.579  1.00  0.00     0.032 C 
HETATM  101  C   UNL     1      24.185  73.617  29.386  1.00  0.00     0.018 C 
BRANCH  99 102
HETATM  102  N   UNL     1      22.133  70.398  29.000  1.00  0.00     0.133 N 
HETATM  103  C   UNL     1      21.390  70.666  30.249  1.00  0.00     0.352 C 
HETATM  104  C   UNL     1      22.251  70.443  31.494  1.00  0.00     0.085 C 
HETATM  105  O   UNL     1      20.130  70.063  30.442  1.00  0.00    -0.189 OA
HETATM  106  H   UNL     1      21.492  70.439  28.221  1.00  0.00     0.320 HD
ENDBRANCH  99 102
ENDBRANCH  93  96
ENDBRANCH  91  93
ENDBRANCH  86  91
BRANCH  87 107
HETATM  107  O   UNL     1      30.175  72.857  31.471  1.00  0.00    -0.391 OA
HETATM  108  H   UNL     1      29.963  73.642  31.982  1.00  0.00     0.210 HD
ENDBRANCH  87 107
ENDBRANCH  81  82
ENDBRANCH  75  81
BRANCH  76 109
HETATM  109  N   UNL     1      31.299  69.361  29.072  1.00  0.00    -0.208 NA
HETATM  110  H   UNL     1      31.762  69.518  29.956  1.00  0.00     0.140 HD
BRANCH 109 111
HETATM  111  S   UNL     1      31.792  70.682  28.080  1.00  0.00     0.215 S 
HETATM  112  O   UNL     1      30.837  70.857  26.708  1.00  0.00    -0.211 OA
HETATM  113  O   UNL     1      31.767  72.095  28.989  1.00  0.00    -0.211 OA
BRANCH 111 114
HETATM  114  C   UNL     1      33.495  70.340  27.573  1.00  0.00     0.134 C 
HETATM  115  C   UNL     1      34.127  69.231  28.425  1.00  0.00     0.024 C 
HETATM  116  C   UNL     1      35.570  68.938  28.000  1.00  0.00     0.018 C 
HETATM  117  C   UNL     1      36.444  70.194  28.083  1.00  0.00     0.240 C 
HETATM  118  C   UNL     1      35.833  71.310  27.223  1.00  0.00     0.032 C 
HETATM  119  C   UNL     1      34.378  71.597  27.613  1.00  0.00     0.018 C 
BRANCH 117 120
HETATM  120  N   UNL     1      37.822  69.877  27.654  1.00  0.00     0.133 N 
HETATM  121  C   UNL     1      38.853  70.238  28.649  1.00  0.00     0.352 C 
HETATM  122  C   UNL     1      38.871  69.260  29.829  1.00  0.00     0.085 C 
HETATM  123  O   UNL     1      40.177  70.456  28.211  1.00  0.00    -0.189 OA
HETATM  124  H   UNL     1      38.009  70.366  26.790  1.00  0.00     0.320 HD
ENDBRANCH 117 120
ENDBRANCH 111 114
ENDBRANCH 109 111
ENDBRANCH  76 109
BRANCH  77 125
HETATM  125  O   UNL     1      29.857  67.131  28.352  1.00  0.00    -0.391 OA
HETATM  126  H   UNL     1      30.146  66.981  29.254  1.00  0.00     0.210 HD
ENDBRANCH  77 125
ENDBRANCH  71  72
ENDBRANCH   4  71
TORSDOF 40
ENDMDL
MODEL 2
REMARK VINA RESULT:      -7.3      1.767      3.390
REMARK WARNING: 32 MAX_TORS EXCEEDED!!!
REMARK  40 active torsions:
REMARK  status: ('A' for Active; 'I' for Inactive)
REMARK    1  A    between atoms: C_1  and  O_123 
REMARK    2  A    between atoms: C_2  and  C_6 
REMARK    3  A    between atoms: C_3  and  O_10 
REMARK    4  A    between atoms: C_4  and  N_12 
REMARK    5  A    between atoms: C_5  and  O_124 
REMARK    6  A    between atoms: C_6  and  O_7 
REMARK    7  A    between atoms: N_12  and  S_13 
REMARK    8  A    between atoms: S_13  and  C_17 
REMARK    9  A    between atoms: C_20  and  N_23 
REMARK       I    between atoms: N_23  and  C_24 
REMARK   10  A    between atoms: O_29  and  C_33 
REMARK   11  A    between atoms: O_30  and  C_34 
REMARK   12  A    between atoms: C_31  and  C_34 
REMARK   13  A    between atoms: C_36  and  O_124 
REMARK   14  A    between atoms: N_37  and  C_40 
REMARK   15  A    between atoms: C_38  and  O_125 
REMARK   16  A    between atoms: O_42  and  C_46 
REMARK   17  A    between atoms: O_43  and  C_47 
REMARK   18  A    between atoms: C_44  and  C_47 
REMARK   19  A    between atoms: C_49  and  O_125 
REMARK   20  A    between atoms: N_50  and  S_61 
REMARK   21  A    between atoms: N_50  and  C_53 
REMARK   22  A    between atoms: C_51  and  O_126 
REMARK   23  A    between atoms: C_56  and  N_63 
REMARK   24  A    between atoms: C_59  and  S_61 
REMARK       I    between atoms: C_62  and  N_63 
REMARK   25  A    between atoms: O_69  and  C_73 
REMARK   26  A    between atoms: O_70  and  C_74 
REMARK   27  A    between atoms: C_71  and  C_74 
REMARK   28  A    between atoms: C_76  and  O_126 
REMARK   29  A    between atoms: N_77  and  S_88 
REMARK   30  A    between atoms: N_77  and  C_80 
REMARK   31  A    between atoms: C_83  and  N_90 
REMARK   32  A    between atoms: C_86  and  S_88 
REMARK       I    between atoms: C_89  and  N_90 
REMARK   33  A    between atoms: O_96  and  C_100 
REMARK   34  A    between atoms: O_97  and  C_101 
REMARK   35  A    between atoms: C_98  and  C_101 
REMARK   36  A    between atoms: N_104  and  S_115 
REMARK   37  A    between atoms: N_104  and  C_107 
REMARK   38  A    between atoms: C_105  and  O_123 
REMARK   39  A    between atoms: C_110  and  N_117 
REMARK   40  A    between atoms: C_113  and  S_115 
REMARK       I    between atoms: C_116  and  N_117 
ROOT
HETATM    1  C   UNL     1      24.436  67.443  26.126  1.00  0.00     0.179 C 
HETATM    2  C   UNL     1      25.434  69.689  25.472  1.00  0.00     0.187 C 
HETATM    3  C   UNL     1      24.357  68.979  26.317  1.00  0.00     0.186 C 
HETATM    4  C   UNL     1      26.868  67.752  26.377  1.00  0.00     0.296 C 
HETATM    5  O   UNL     1      25.771  66.983  25.875  1.00  0.00    -0.349 OA
HETATM    6  C   UNL     1      26.823  69.239  25.963  1.00  0.00     0.303 C 
ENDROOT
BRANCH   3   7
HETATM    7  O   UNL     1      23.063  69.562  26.142  1.00  0.00    -0.349 OA
BRANCH   7   8
HETATM    8  C   UNL     1      21.963  68.683  25.944  1.00  0.00     0.282 C 
HETATM    9  C   UNL     1      21.345  68.902  24.559  1.00  0.00     0.157 C 
HETATM   10  C   UNL     1      20.043  68.086  24.482  1.00  0.00     0.173 C 
HETATM   11  C   UNL     1      19.132  68.482  25.668  1.00  0.00     0.186 C 
HETATM   12  C   UNL     1      19.872  68.356  27.022  1.00  0.00     0.179 C 
HETATM   13  O   UNL     1      21.081  69.104  26.971  1.00  0.00    -0.349 OA
BRANCH   9  14
HETATM   14  N   UNL     1      22.310  68.497  23.518  1.00  0.00    -0.208 NA
HETATM   15  H   UNL     1      23.235  68.802  23.788  1.00  0.00     0.140 HD
BRANCH  14  16
HETATM   16  S   UNL     1      21.992  69.300  22.023  1.00  0.00     0.215 S 
HETATM   17  O   UNL     1      20.793  70.468  22.168  1.00  0.00    -0.211 OA
HETATM   18  O   UNL     1      23.406  69.995  21.441  1.00  0.00    -0.211 OA
BRANCH  16  19
HETATM   19  C   UNL     1      21.437  68.043  20.847  1.00  0.00     0.134 C 
HETATM   20  C   UNL     1      22.603  67.491  20.019  1.00  0.00     0.024 C 
HETATM   21  C   UNL     1      22.142  66.409  19.039  1.00  0.00     0.018 C 
HETATM   22  C   UNL     1      21.063  66.945  18.092  1.00  0.00     0.240 C 
HETATM   23  C   UNL     1      19.881  67.488  18.910  1.00  0.00     0.032 C 
HETATM   24  C   UNL     1      20.331  68.557  19.913  1.00  0.00     0.018 C 
BRANCH  22  25
HETATM   25  N   UNL     1      20.641  65.882  17.153  1.00  0.00     0.133 N 
HETATM   26  C   UNL     1      19.903  66.362  15.964  1.00  0.00     0.352 C 
HETATM   27  O   UNL     1      19.238  65.416  15.156  1.00  0.00    -0.189 OA
HETATM   28  C   UNL     1      20.739  67.286  15.072  1.00  0.00     0.085 C 
HETATM   29  H   UNL     1      20.059  65.223  17.651  1.00  0.00     0.320 HD
ENDBRANCH  22  25
ENDBRANCH  16  19
ENDBRANCH  14  16
ENDBRANCH   9  14
BRANCH  10  30
HETATM   30  O   UNL     1      20.395  66.715  24.477  1.00  0.00    -0.391 OA
HETATM   31  H   UNL     1      20.816  66.513  23.638  1.00  0.00     0.210 HD
ENDBRANCH  10  30
BRANCH  11  32
HETATM   32  O   UNL     1      17.847  67.853  25.608  1.00  0.00    -0.349 OA
BRANCH  32  33
HETATM   33  C   UNL     1      16.759  68.625  25.113  1.00  0.00     0.281 C 
HETATM   34  O   UNL     1      17.272  69.941  25.230  1.00  0.00    -0.352 OA
HETATM   35  C   UNL     1      16.315  70.922  24.862  1.00  0.00     0.150 C 
HETATM   36  C   UNL     1      15.967  70.756  23.372  1.00  0.00     0.067 C 
HETATM   37  C   UNL     1      15.484  69.327  23.072  1.00  0.00     0.144 C 
HETATM   38  C   UNL     1      16.459  68.279  23.646  1.00  0.00     0.155 C 
BRANCH  35  39
HETATM   39  C   UNL     1      16.891  72.317  25.130  1.00  0.00     0.196 C 
BRANCH  39  40
HETATM   40  O   UNL     1      18.150  72.206  25.761  1.00  0.00    -0.398 OA
HETATM   41  H   UNL     1      18.611  73.043  25.669  1.00  0.00     0.209 HD
ENDBRANCH  39  40
ENDBRANCH  35  39
BRANCH  37  42
HETATM   42  O   UNL     1      14.193  69.126  23.612  1.00  0.00    -0.394 OA
HETATM   43  H   UNL     1      13.609  68.836  22.906  1.00  0.00     0.210 HD
ENDBRANCH  37  42
BRANCH  38  44
HETATM   44  N   UNL     1      15.899  66.914  23.568  1.00  0.00    -0.208 NA
HETATM   45  H   UNL     1      15.965  66.479  24.476  1.00  0.00     0.140 HD
BRANCH  44  46
HETATM   46  S   UNL     1      16.798  65.883  22.515  1.00  0.00     0.215 S 
HETATM   47  O   UNL     1      15.942  65.462  21.132  1.00  0.00    -0.211 OA
HETATM   48  O   UNL     1      18.248  66.621  22.098  1.00  0.00    -0.211 OA
BRANCH  46  49
HETATM   49  C   UNL     1      17.154  64.369  23.442  1.00  0.00     0.134 C 
HETATM   50  C   UNL     1      17.431  64.668  24.922  1.00  0.00     0.024 C 
HETATM   51  C   UNL     1      17.721  63.393  25.719  1.00  0.00     0.018 C 
HETATM   52  C   UNL     1      18.905  62.617  25.125  1.00  0.00     0.240 C 
HETATM   53  C   UNL     1      18.626  62.301  23.650  1.00  0.00     0.032 C 
HETATM   54  C   UNL     1      18.322  63.570  22.843  1.00  0.00     0.018 C 
BRANCH  52  55
HETATM   55  N   UNL     1      19.167  61.369  25.875  1.00  0.00     0.133 N 
HETATM   56  C   UNL     1      20.156  61.519  26.964  1.00  0.00     0.352 C 
HETATM   57  C   UNL     1      21.544  61.913  26.453  1.00  0.00     0.085 C 
HETATM   58  O   UNL     1      20.288  60.492  27.921  1.00  0.00    -0.189 OA
HETATM   59  H   UNL     1      18.297  61.039  26.268  1.00  0.00     0.320 HD
ENDBRANCH  52  55
ENDBRANCH  46  49
ENDBRANCH  44  46
ENDBRANCH  38  44
ENDBRANCH  32  33
ENDBRANCH  11  32
BRANCH  12  60
HETATM   60  C   UNL     1      19.051  68.933  28.183  1.00  0.00     0.198 C 
BRANCH  60  61
HETATM   61  O   UNL     1      19.451  68.337  29.398  1.00  0.00    -0.398 OA
HETATM   62  H   UNL     1      19.141  68.885  30.123  1.00  0.00     0.209 HD
ENDBRANCH  60  61
ENDBRANCH  12  60
ENDBRANCH   7   8
ENDBRANCH   3   7
BRANCH   1  63
HETATM   63  C   UNL     1      23.786  66.706  27.307  1.00  0.00     0.198 C 
BRANCH  63  64
HETATM   64  O   UNL     1      23.531  67.612  28.358  1.00  0.00    -0.398 OA
HETATM   65  H   UNL     1      24.298  68.178  28.466  1.00  0.00     0.209 HD
ENDBRANCH  63  64
ENDBRANCH   1  63
BRANCH   2  66
HETATM   66  O   UNL     1      25.307  69.404  24.091  1.00  0.00    -0.391 OA
HETATM   67  H   UNL     1      26.159  69.106  23.762  1.00  0.00     0.210 HD
ENDBRANCH   2  66
BRANCH   6  68
HETATM   68  N   UNL     1      27.857  69.526  24.952  1.00  0.00     0.090 N 
HETATM   69  H   UNL     1      27.821  68.828  24.223  1.00  0.00     0.313 HD
HETATM   70  H   UNL     1      27.694  70.440  24.554  1.00  0.00     0.313 HD
ENDBRANCH   6  68
BRANCH   4  71
HETATM   71  O   UNL     1      26.727  67.608  27.790  1.00  0.00    -0.348 OA
BRANCH  71  72
HETATM   72  C   UNL     1      27.593  68.378  28.627  1.00  0.00     0.186 C 
HETATM   73  C   UNL     1      27.476  68.063  30.135  1.00  0.00     0.179 C 
HETATM   74  O   UNL     1      28.247  69.012  30.855  1.00  0.00    -0.349 OA
HETATM   75  C   UNL     1      29.629  68.961  30.544  1.00  0.00     0.282 C 
HETATM   76  C   UNL     1      29.879  69.343  29.075  1.00  0.00     0.157 C 
HETATM   77  C   UNL     1      29.070  68.393  28.170  1.00  0.00     0.173 C 
BRANCH  73  78
HETATM   78  C   UNL     1      26.027  68.179  30.629  1.00  0.00     0.198 C 
BRANCH  78  79
HETATM   79  O   UNL     1      25.354  66.950  30.456  1.00  0.00    -0.398 OA
HETATM   80  H   UNL     1      24.482  67.130  30.098  1.00  0.00     0.209 HD
ENDBRANCH  78  79
ENDBRANCH  73  78
BRANCH  75  81
HETATM   81  O   UNL     1      30.143  69.956  31.422  1.00  0.00    -0.349 OA
BRANCH  81  82
HETATM   82  C   UNL     1      29.218  70.875  32.010  1.00  0.00     0.186 C 
HETATM   83  C   UNL     1      29.393  71.139  33.525  1.00  0.00     0.176 C 
HETATM   84  O   UNL     1      28.353  72.000  33.988  1.00  0.00    -0.379 OA
HETATM   85  C   UNL     1      28.274  73.249  33.314  1.00  0.00     0.191 C 
HETATM   86  C   UNL     1      27.987  73.041  31.818  1.00  0.00     0.126 C 
HETATM   87  C   UNL     1      29.118  72.192  31.212  1.00  0.00     0.170 C 
BRANCH  83  88
HETATM   88  C   UNL     1      29.284  69.842  34.338  1.00  0.00     0.198 C 
BRANCH  88  89
HETATM   89  O   UNL     1      28.338  68.976  33.748  1.00  0.00    -0.398 OA
HETATM   90  H   UNL     1      28.720  68.612  32.947  1.00  0.00     0.209 HD
ENDBRANCH  88  89
ENDBRANCH  83  88
BRANCH  86  91
HETATM   91  N   UNL     1      27.836  74.346  31.138  1.00  0.00    -0.210 NA
HETATM   92  H   UNL     1      27.327  74.970  31.746  1.00  0.00     0.140 HD
BRANCH  91  93
HETATM   93  S   UNL     1      26.861  74.208  29.715  1.00  0.00     0.215 S 
HETATM   94  O   UNL     1      26.096  75.649  29.313  1.00  0.00    -0.211 OA
HETATM   95  O   UNL     1      27.786  73.679  28.416  1.00  0.00    -0.211 OA
BRANCH  93  96
HETATM   96  C   UNL     1      25.579  72.970  30.023  1.00  0.00     0.134 C 
HETATM   97  C   UNL     1      25.641  71.807  29.025  1.00  0.00     0.024 C 
HETATM   98  C   UNL     1      24.569  70.756  29.328  1.00  0.00     0.018 C 
HETATM   99  C   UNL     1      23.157  71.363  29.312  1.00  0.00     0.240 C 
HETATM  100  C   UNL     1      23.086  72.524  30.311  1.00  0.00     0.032 C 
HETATM  101  C   UNL     1      24.168  73.577  30.036  1.00  0.00     0.018 C 
BRANCH  99 102
HETATM  102  N   UNL     1      22.131  70.350  29.635  1.00  0.00     0.133 N 
HETATM  103  C   UNL     1      21.795  70.287  31.073  1.00  0.00     0.352 C 
HETATM  104  C   UNL     1      22.970  69.797  31.922  1.00  0.00     0.085 C 
HETATM  105  O   UNL     1      20.620  69.618  31.477  1.00  0.00    -0.189 OA
HETATM  106  H   UNL     1      21.294  70.558  29.111  1.00  0.00     0.320 HD
ENDBRANCH  99 102
ENDBRANCH  93  96
ENDBRANCH  91  93
ENDBRANCH  86  91
BRANCH  87 107
HETATM  107  O   UNL     1      30.309  72.954  31.231  1.00  0.00    -0.391 OA
HETATM  108  H   UNL     1      31.017  72.422  30.860  1.00  0.00     0.210 HD
ENDBRANCH  87 107
ENDBRANCH  81  82
ENDBRANCH  75  81
BRANCH  76 109
HETATM  109  N   UNL     1      31.324  69.256  28.785  1.00  0.00    -0.208 NA
HETATM  110  H   UNL     1      31.829  69.122  29.650  1.00  0.00     0.140 HD
BRANCH 109 111
HETATM  111  S   UNL     1      31.957  70.722  28.133  1.00  0.00     0.215 S 
HETATM  112  O   UNL     1      31.077  71.280  26.814  1.00  0.00    -0.211 OA
HETATM  113  O   UNL     1      32.000  71.890  29.340  1.00  0.00    -0.211 OA
BRANCH 111 114
HETATM  114  C   UNL     1      33.649  70.362  27.604  1.00  0.00     0.134 C 
HETATM  115  C   UNL     1      34.281  69.246  28.445  1.00  0.00     0.024 C 
HETATM  116  C   UNL     1      35.714  68.938  28.000  1.00  0.00     0.018 C 
HETATM  117  C   UNL     1      36.603  70.183  28.073  1.00  0.00     0.240 C 
HETATM  118  C   UNL     1      35.993  71.308  27.223  1.00  0.00     0.032 C 
HETATM  119  C   UNL     1      34.546  71.610  27.633  1.00  0.00     0.018 C 
BRANCH 117 120
HETATM  120  N   UNL     1      37.971  69.853  27.625  1.00  0.00     0.133 N 
HETATM  121  C   UNL     1      39.007  70.085  28.654  1.00  0.00     0.352 C 
HETATM  122  C   UNL     1      38.977  69.007  29.743  1.00  0.00     0.085 C 
HETATM  123  O   UNL     1      40.342  70.289  28.244  1.00  0.00    -0.189 OA
HETATM  124  H   UNL     1      38.185  70.408  26.809  1.00  0.00     0.320 HD
ENDBRANCH 117 120
ENDBRANCH 111 114
ENDBRANCH 109 111
ENDBRANCH  76 109
BRANCH  77 125
HETATM  125  O   UNL     1      29.684  67.119  28.228  1.00  0.00    -0.391 OA
HETATM  126  H   UNL     1      29.983  66.885  27.347  1.00  0.00     0.210 HD
ENDBRANCH  77 125
ENDBRANCH  71  72
ENDBRANCH   4  71
TORSDOF 40
ENDMDL
MODEL 3
REMARK VINA RESULT:      -7.2      2.985     16.039
REMARK WARNING: 32 MAX_TORS EXCEEDED!!!
REMARK  40 active torsions:
REMARK  status: ('A' for Active; 'I' for Inactive)
REMARK    1  A    between atoms: C_1  and  O_123 
REMARK    2  A    between atoms: C_2  and  C_6 
REMARK    3  A    between atoms: C_3  and  O_10 
REMARK    4  A    between atoms: C_4  and  N_12 
REMARK    5  A    between atoms: C_5  and  O_124 
REMARK    6  A    between atoms: C_6  and  O_7 
REMARK    7  A    between atoms: N_12  and  S_13 
REMARK    8  A    between atoms: S_13  and  C_17 
REMARK    9  A    between atoms: C_20  and  N_23 
REMARK       I    between atoms: N_23  and  C_24 
REMARK   10  A    between atoms: O_29  and  C_33 
REMARK   11  A    between atoms: O_30  and  C_34 
REMARK   12  A    between atoms: C_31  and  C_34 
REMARK   13  A    between atoms: C_36  and  O_124 
REMARK   14  A    between atoms: N_37  and  C_40 
REMARK   15  A    between atoms: C_38  and  O_125 
REMARK   16  A    between atoms: O_42  and  C_46 
REMARK   17  A    between atoms: O_43  and  C_47 
REMARK   18  A    between atoms: C_44  and  C_47 
REMARK   19  A    between atoms: C_49  and  O_125 
REMARK   20  A    between atoms: N_50  and  S_61 
REMARK   21  A    between atoms: N_50  and  C_53 
REMARK   22  A    between atoms: C_51  and  O_126 
REMARK   23  A    between atoms: C_56  and  N_63 
REMARK   24  A    between atoms: C_59  and  S_61 
REMARK       I    between atoms: C_62  and  N_63 
REMARK   25  A    between atoms: O_69  and  C_73 
REMARK   26  A    between atoms: O_70  and  C_74 
REMARK   27  A    between atoms: C_71  and  C_74 
REMARK   28  A    between atoms: C_76  and  O_126 
REMARK   29  A    between atoms: N_77  and  S_88 
REMARK   30  A    between atoms: N_77  and  C_80 
REMARK   31  A    between atoms: C_83  and  N_90 
REMARK   32  A    between atoms: C_86  and  S_88 
REMARK       I    between atoms: C_89  and  N_90 
REMARK   33  A    between atoms: O_96  and  C_100 
REMARK   34  A    between atoms: O_97  and  C_101 
REMARK   35  A    between atoms: C_98  and  C_101 
REMARK   36  A    between atoms: N_104  and  S_115 
REMARK   37  A    between atoms: N_104  and  C_107 
REMARK   38  A    between atoms: C_105  and  O_123 
REMARK   39  A    between atoms: C_110  and  N_117 
REMARK   40  A    between atoms: C_113  and  S_115 
REMARK       I    between atoms: C_116  and  N_117 
ROOT
HETATM    1  C   UNL     1      24.146  69.527  25.598  1.00  0.00     0.179 C 
HETATM    2  C   UNL     1      22.895  70.820  27.396  1.00  0.00     0.187 C 
HETATM    3  C   UNL     1      23.926  70.915  26.255  1.00  0.00     0.186 C 
HETATM    4  C   UNL     1      21.689  69.347  25.663  1.00  0.00     0.296 C 
HETATM    5  O   UNL     1      22.969  68.708  25.625  1.00  0.00    -0.349 OA
HETATM    6  C   UNL     1      21.543  70.375  26.805  1.00  0.00     0.303 C 
ENDROOT
BRANCH   3   7
HETATM    7  O   UNL     1      25.111  71.608  26.654  1.00  0.00    -0.349 OA
BRANCH   7   8
HETATM    8  C   UNL     1      26.011  70.933  27.523  1.00  0.00     0.282 C 
HETATM    9  C   UNL     1      26.480  71.871  28.642  1.00  0.00     0.157 C 
HETATM   10  C   UNL     1      27.603  71.163  29.420  1.00  0.00     0.173 C 
HETATM   11  C   UNL     1      28.709  70.736  28.427  1.00  0.00     0.186 C 
HETATM   12  C   UNL     1      28.133  69.902  27.257  1.00  0.00     0.179 C 
HETATM   13  O   UNL     1      27.074  70.621  26.639  1.00  0.00    -0.349 OA
BRANCH   9  14
HETATM   14  N   UNL     1      25.336  72.209  29.513  1.00  0.00    -0.208 NA
HETATM   15  H   UNL     1      24.477  72.067  29.000  1.00  0.00     0.140 HD
BRANCH  14  16
HETATM   16  S   UNL     1      25.340  73.886  29.926  1.00  0.00     0.215 S 
HETATM   17  O   UNL     1      26.411  74.773  28.984  1.00  0.00    -0.211 OA
HETATM   18  O   UNL     1      23.787  74.509  29.775  1.00  0.00    -0.211 OA
BRANCH  16  19
HETATM   19  C   UNL     1      25.849  74.010  31.656  1.00  0.00     0.134 C 
HETATM   20  C   UNL     1      27.179  74.760  31.801  1.00  0.00     0.024 C 
HETATM   21  C   UNL     1      27.602  74.889  33.266  1.00  0.00     0.018 C 
HETATM   22  C   UNL     1      27.728  73.513  33.929  1.00  0.00     0.240 C 
HETATM   23  C   UNL     1      26.396  72.757  33.804  1.00  0.00     0.032 C 
HETATM   24  C   UNL     1      25.946  72.639  32.343  1.00  0.00     0.018 C 
BRANCH  22  25
HETATM   25  N   UNL     1      28.144  73.667  35.340  1.00  0.00     0.133 N 
HETATM   26  C   UNL     1      29.402  72.975  35.695  1.00  0.00     0.352 C 
HETATM   27  O   UNL     1      29.738  72.845  37.058  1.00  0.00    -0.189 OA
HETATM   28  C   UNL     1      30.617  73.508  34.926  1.00  0.00     0.085 C 
HETATM   29  H   UNL     1      27.404  73.320  35.934  1.00  0.00     0.320 HD
ENDBRANCH  22  25
ENDBRANCH  16  19
ENDBRANCH  14  16
ENDBRANCH   9  14
BRANCH  10  30
HETATM   30  O   UNL     1      27.024  70.075  30.117  1.00  0.00    -0.391 OA
HETATM   31  H   UNL     1      26.673  70.401  30.950  1.00  0.00     0.210 HD
ENDBRANCH  10  30
BRANCH  11  32
HETATM   32  O   UNL     1      29.850  70.173  29.083  1.00  0.00    -0.349 OA
BRANCH  32  33
HETATM   33  C   UNL     1      30.364  70.861  30.218  1.00  0.00     0.281 C 
HETATM   34  O   UNL     1      29.832  70.088  31.279  1.00  0.00    -0.352 OA
HETATM   35  C   UNL     1      30.147  70.637  32.549  1.00  0.00     0.150 C 
HETATM   36  C   UNL     1      31.673  70.603  32.751  1.00  0.00     0.067 C 
HETATM   37  C   UNL     1      32.399  71.326  31.604  1.00  0.00     0.144 C 
HETATM   38  C   UNL     1      31.900  70.833  30.231  1.00  0.00     0.155 C 
BRANCH  35  39
HETATM   39  C   UNL     1      29.440  69.825  33.641  1.00  0.00     0.196 C 
BRANCH  39  40
HETATM   40  O   UNL     1      28.475  68.973  33.061  1.00  0.00    -0.398 OA
HETATM   41  H   UNL     1      27.728  68.906  33.660  1.00  0.00     0.209 HD
ENDBRANCH  39  40
ENDBRANCH  35  39
BRANCH  37  42
HETATM   42  O   UNL     1      32.205  72.723  31.711  1.00  0.00    -0.394 OA
HETATM   43  H   UNL     1      31.408  72.882  32.221  1.00  0.00     0.210 HD
ENDBRANCH  37  42
BRANCH  38  44
HETATM   44  N   UNL     1      32.417  71.673  29.131  1.00  0.00    -0.208 NA
HETATM   45  H   UNL     1      31.682  72.290  28.815  1.00  0.00     0.140 HD
BRANCH  44  46
HETATM   46  S   UNL     1      32.853  70.752  27.737  1.00  0.00     0.215 S 
HETATM   47  O   UNL     1      32.477  69.122  27.892  1.00  0.00    -0.211 OA
HETATM   48  O   UNL     1      32.106  71.393  26.376  1.00  0.00    -0.211 OA
BRANCH  46  49
HETATM   49  C   UNL     1      34.647  70.903  27.550  1.00  0.00     0.134 C 
HETATM   50  C   UNL     1      35.360  69.583  27.876  1.00  0.00     0.024 C 
HETATM   51  C   UNL     1      36.878  69.696  27.708  1.00  0.00     0.018 C 
HETATM   52  C   UNL     1      37.458  70.819  28.580  1.00  0.00     0.240 C 
HETATM   53  C   UNL     1      36.760  72.143  28.246  1.00  0.00     0.032 C 
HETATM   54  C   UNL     1      35.237  72.040  28.399  1.00  0.00     0.018 C 
BRANCH  52  55
HETATM   55  N   UNL     1      38.919  70.949  28.396  1.00  0.00     0.133 N 
HETATM   56  C   UNL     1      39.675  69.713  28.690  1.00  0.00     0.352 C 
HETATM   57  C   UNL     1      39.549  69.276  30.152  1.00  0.00     0.085 C 
HETATM   58  O   UNL     1      41.025  69.619  28.292  1.00  0.00    -0.189 OA
HETATM   59  H   UNL     1      39.102  71.224  27.441  1.00  0.00     0.320 HD
ENDBRANCH  52  55
ENDBRANCH  46  49
ENDBRANCH  44  46
ENDBRANCH  38  44
ENDBRANCH  32  33
ENDBRANCH  11  32
BRANCH  12  60
HETATM   60  C   UNL     1      29.180  69.643  26.165  1.00  0.00     0.198 C 
BRANCH  60  61
HETATM   61  O   UNL     1      28.630  69.923  24.895  1.00  0.00    -0.398 OA
HETATM   62  H   UNL     1      27.673  69.893  24.964  1.00  0.00     0.209 HD
ENDBRANCH  60  61
ENDBRANCH  12  60
ENDBRANCH   7   8
ENDBRANCH   3   7
BRANCH   1  63
HETATM   63  C   UNL     1      24.714  69.672  24.178  1.00  0.00     0.198 C 
BRANCH  63  64
HETATM   64  O   UNL     1      26.021  69.143  24.126  1.00  0.00    -0.398 OA
HETATM   65  H   UNL     1      26.599  69.708  24.643  1.00  0.00     0.209 HD
ENDBRANCH  63  64
ENDBRANCH   1  63
BRANCH   2  66
HETATM   66  O   UNL     1      23.291  69.907  28.404  1.00  0.00    -0.391 OA
HETATM   67  H   UNL     1      24.164  70.158  28.715  1.00  0.00     0.210 HD
ENDBRANCH   2  66
BRANCH   6  68
HETATM   68  N   UNL     1      20.653  69.856  27.859  1.00  0.00     0.090 N 
HETATM   69  H   UNL     1      20.972  68.944  28.153  1.00  0.00     0.313 HD
HETATM   70  H   UNL     1      20.659  70.488  28.647  1.00  0.00     0.313 HD
ENDBRANCH   6  68
BRANCH   4  71
HETATM   71  O   UNL     1      21.622  69.982  24.387  1.00  0.00    -0.348 OA
BRANCH  71  72
HETATM   72  C   UNL     1      20.977  69.274  23.324  1.00  0.00     0.186 C 
HETATM   73  C   UNL     1      19.478  69.606  23.149  1.00  0.00     0.179 C 
HETATM   74  O   UNL     1      18.929  68.712  22.193  1.00  0.00    -0.349 OA
HETATM   75  C   UNL     1      19.517  68.836  20.909  1.00  0.00     0.282 C 
HETATM   76  C   UNL     1      21.004  68.447  20.943  1.00  0.00     0.157 C 
HETATM   77  C   UNL     1      21.728  69.336  21.974  1.00  0.00     0.173 C 
BRANCH  73  78
HETATM   78  C   UNL     1      18.698  69.416  24.457  1.00  0.00     0.198 C 
BRANCH  78  79
HETATM   79  O   UNL     1      18.536  68.040  24.731  1.00  0.00    -0.398 OA
HETATM   80  H   UNL     1      19.026  67.830  25.529  1.00  0.00     0.209 HD
ENDBRANCH  78  79
ENDBRANCH  73  78
BRANCH  75  81
HETATM   81  O   UNL     1      18.759  67.886  20.169  1.00  0.00    -0.349 OA
BRANCH  81  82
HETATM   82  C   UNL     1      17.901  67.001  20.895  1.00  0.00     0.186 C 
HETATM   83  C   UNL     1      16.674  66.459  20.123  1.00  0.00     0.176 C 
HETATM   84  O   UNL     1      15.867  65.667  20.992  1.00  0.00    -0.379 OA
HETATM   85  C   UNL     1      16.544  64.572  21.596  1.00  0.00     0.191 C 
HETATM   86  C   UNL     1      17.709  65.069  22.469  1.00  0.00     0.126 C 
HETATM   87  C   UNL     1      18.685  65.864  21.584  1.00  0.00     0.170 C 
BRANCH  83  88
HETATM   88  C   UNL     1      15.781  67.600  19.613  1.00  0.00     0.198 C 
BRANCH  88  89
HETATM   89  O   UNL     1      16.003  68.767  20.376  1.00  0.00    -0.398 OA
HETATM   90  H   UNL     1      15.754  69.527  19.846  1.00  0.00     0.209 HD
ENDBRANCH  88  89
ENDBRANCH  83  88
BRANCH  86  91
HETATM   91  N   UNL     1      18.363  63.930  23.148  1.00  0.00    -0.210 NA
HETATM   92  H   UNL     1      17.654  63.262  23.414  1.00  0.00     0.140 HD
BRANCH  91  93
HETATM   93  S   UNL     1      19.102  64.420  24.633  1.00  0.00     0.215 S 
HETATM   94  O   UNL     1      20.341  65.531  24.404  1.00  0.00    -0.211 OA
HETATM   95  O   UNL     1      17.954  65.063  25.678  1.00  0.00    -0.211 OA
BRANCH  93  96
HETATM   96  C   UNL     1      19.813  62.957  25.424  1.00  0.00     0.134 C 
HETATM   97  C   UNL     1      18.850  62.313  26.430  1.00  0.00     0.024 C 
HETATM   98  C   UNL     1      19.461  61.058  27.060  1.00  0.00     0.018 C 
HETATM   99  C   UNL     1      20.794  61.364  27.759  1.00  0.00     0.240 C 
HETATM  100  C   UNL     1      21.764  62.004  26.759  1.00  0.00     0.032 C 
HETATM  101  C   UNL     1      21.160  63.252  26.101  1.00  0.00     0.018 C 
BRANCH  99 102
HETATM  102  N   UNL     1      21.393  60.143  28.338  1.00  0.00     0.133 N 
HETATM  103  C   UNL     1      20.823  59.769  29.649  1.00  0.00     0.352 C 
HETATM  104  C   UNL     1      21.146  60.797  30.735  1.00  0.00     0.085 C 
HETATM  105  O   UNL     1      21.053  58.472  30.155  1.00  0.00    -0.189 OA
HETATM  106  H   UNL     1      21.259  59.379  27.691  1.00  0.00     0.320 HD
ENDBRANCH  99 102
ENDBRANCH  93  96
ENDBRANCH  91  93
ENDBRANCH  86  91
BRANCH  87 107
HETATM  107  O   UNL     1      19.294  64.968  20.674  1.00  0.00    -0.391 OA
HETATM  108  H   UNL     1      20.043  65.410  20.268  1.00  0.00     0.210 HD
ENDBRANCH  87 107
ENDBRANCH  81  82
ENDBRANCH  75  81
BRANCH  76 109
HETATM  109  N   UNL     1      21.584  68.610  19.595  1.00  0.00    -0.208 NA
HETATM  110  H   UNL     1      20.851  68.854  18.945  1.00  0.00     0.140 HD
BRANCH 109 111
HETATM  111  S   UNL     1      22.246  67.142  18.977  1.00  0.00     0.215 S 
HETATM  112  O   UNL     1      23.917  67.205  18.804  1.00  0.00    -0.211 OA
HETATM  113  O   UNL     1      21.814  65.873  19.990  1.00  0.00    -0.211 OA
BRANCH 111 114
HETATM  114  C   UNL     1      21.493  66.880  17.354  1.00  0.00     0.134 C 
HETATM  115  C   UNL     1      20.731  68.123  16.875  1.00  0.00     0.024 C 
HETATM  116  C   UNL     1      20.091  67.905  15.500  1.00  0.00     0.018 C 
HETATM  117  C   UNL     1      19.138  66.706  15.509  1.00  0.00     0.240 C 
HETATM  118  C   UNL     1      19.890  65.448  15.972  1.00  0.00     0.032 C 
HETATM  119  C   UNL     1      20.564  65.657  17.334  1.00  0.00     0.018 C 
BRANCH 117 120
HETATM  120  N   UNL     1      18.552  66.519  14.166  1.00  0.00     0.133 N 
HETATM  121  C   UNL     1      17.575  65.412  14.092  1.00  0.00     0.352 C 
HETATM  122  C   UNL     1      16.243  65.785  14.751  1.00  0.00     0.085 C 
HETATM  123  O   UNL     1      17.319  64.810  12.841  1.00  0.00    -0.189 OA
HETATM  124  H   UNL     1      19.300  66.345  13.510  1.00  0.00     0.320 HD
ENDBRANCH 117 120
ENDBRANCH 111 114
ENDBRANCH 109 111
ENDBRANCH  76 109
BRANCH  77 125
HETATM  125  O   UNL     1      21.801  70.643  21.436  1.00  0.00    -0.391 OA
HETATM  126  H   UNL     1      22.292  71.195  22.047  1.00  0.00     0.210 HD
ENDBRANCH  77 125
ENDBRANCH  71  72
ENDBRANCH   4  71
TORSDOF 40
ENDMDL
MODEL 4
REMARK VINA RESULT:      -7.2      3.961     16.388
REMARK WARNING: 32 MAX_TORS EXCEEDED!!!
REMARK  40 active torsions:
REMARK  status: ('A' for Active; 'I' for Inactive)
REMARK    1  A    between atoms: C_1  and  O_123 
REMARK    2  A    between atoms: C_2  and  C_6 
REMARK    3  A    between atoms: C_3  and  O_10 
REMARK    4  A    between atoms: C_4  and  N_12 
REMARK    5  A    between atoms: C_5  and  O_124 
REMARK    6  A    between atoms: C_6  and  O_7 
REMARK    7  A    between atoms: N_12  and  S_13 
REMARK    8  A    between atoms: S_13  and  C_17 
REMARK    9  A    between atoms: C_20  and  N_23 
REMARK       I    between atoms: N_23  and  C_24 
REMARK   10  A    between atoms: O_29  and  C_33 
REMARK   11  A    between atoms: O_30  and  C_34 
REMARK   12  A    between atoms: C_31  and  C_34 
REMARK   13  A    between atoms: C_36  and  O_124 
REMARK   14  A    between atoms: N_37  and  C_40 
REMARK   15  A    between atoms: C_38  and  O_125 
REMARK   16  A    between atoms: O_42  and  C_46 
REMARK   17  A    between atoms: O_43  and  C_47 
REMARK   18  A    between atoms: C_44  and  C_47 
REMARK   19  A    between atoms: C_49  and  O_125 
REMARK   20  A    between atoms: N_50  and  S_61 
REMARK   21  A    between atoms: N_50  and  C_53 
REMARK   22  A    between atoms: C_51  and  O_126 
REMARK   23  A    between atoms: C_56  and  N_63 
REMARK   24  A    between atoms: C_59  and  S_61 
REMARK       I    between atoms: C_62  and  N_63 
REMARK   25  A    between atoms: O_69  and  C_73 
REMARK   26  A    between atoms: O_70  and  C_74 
REMARK   27  A    between atoms: C_71  and  C_74 
REMARK   28  A    between atoms: C_76  and  O_126 
REMARK   29  A    between atoms: N_77  and  S_88 
REMARK   30  A    between atoms: N_77  and  C_80 
REMARK   31  A    between atoms: C_83  and  N_90 
REMARK   32  A    between atoms: C_86  and  S_88 
REMARK       I    between atoms: C_89  and  N_90 
REMARK   33  A    between atoms: O_96  and  C_100 
REMARK   34  A    between atoms: O_97  and  C_101 
REMARK   35  A    between atoms: C_98  and  C_101 
REMARK   36  A    between atoms: N_104  and  S_115 
REMARK   37  A    between atoms: N_104  and  C_107 
REMARK   38  A    between atoms: C_105  and  O_123 
REMARK   39  A    between atoms: C_110  and  N_117 
REMARK   40  A    between atoms: C_113  and  S_115 
REMARK       I    between atoms: C_116  and  N_117 
ROOT
HETATM    1  C   UNL     1      29.345  68.958  26.365  1.00  0.00     0.179 C 
HETATM    2  C   UNL     1      28.119  67.624  28.150  1.00  0.00     0.187 C 
HETATM    3  C   UNL     1      28.804  68.964  27.818  1.00  0.00     0.186 C 
HETATM    4  C   UNL     1      27.162  67.970  25.785  1.00  0.00     0.296 C 
HETATM    5  O   UNL     1      28.547  68.159  25.480  1.00  0.00    -0.349 OA
HETATM    6  C   UNL     1      26.909  67.441  27.214  1.00  0.00     0.303 C 
ENDROOT
BRANCH   3   7
HETATM    7  O   UNL     1      29.738  69.358  28.826  1.00  0.00    -0.349 OA
BRANCH   7   8
HETATM    8  C   UNL     1      31.080  68.908  28.697  1.00  0.00     0.282 C 
HETATM    9  C   UNL     1      31.632  68.469  30.058  1.00  0.00     0.157 C 
HETATM   10  C   UNL     1      33.137  68.197  29.899  1.00  0.00     0.173 C 
HETATM   11  C   UNL     1      33.814  69.453  29.301  1.00  0.00     0.186 C 
HETATM   12  C   UNL     1      33.117  69.909  27.996  1.00  0.00     0.179 C 
HETATM   13  O   UNL     1      31.726  70.084  28.238  1.00  0.00    -0.349 OA
BRANCH   9  14
HETATM   14  N   UNL     1      30.903  67.272  30.522  1.00  0.00    -0.208 NA
HETATM   15  H   UNL     1      30.120  67.103  29.907  1.00  0.00     0.140 HD
BRANCH  14  16
HETATM   16  S   UNL     1      30.201  67.531  32.079  1.00  0.00     0.215 S 
HETATM   17  O   UNL     1      30.413  69.107  32.620  1.00  0.00    -0.211 OA
HETATM   18  O   UNL     1      28.565  67.153  32.032  1.00  0.00    -0.211 OA
BRANCH  16  19
HETATM   19  C   UNL     1      31.024  66.407  33.231  1.00  0.00     0.134 C 
HETATM   20  C   UNL     1      32.501  66.212  32.872  1.00  0.00     0.024 C 
HETATM   21  C   UNL     1      33.208  65.280  33.859  1.00  0.00     0.018 C 
HETATM   22  C   UNL     1      32.522  63.911  33.915  1.00  0.00     0.240 C 
HETATM   23  C   UNL     1      31.042  64.091  34.289  1.00  0.00     0.032 C 
HETATM   24  C   UNL     1      30.325  65.041  33.323  1.00  0.00     0.018 C 
BRANCH  22  25
HETATM   25  N   UNL     1      33.228  63.029  34.870  1.00  0.00     0.133 N 
HETATM   26  C   UNL     1      33.414  61.637  34.407  1.00  0.00     0.352 C 
HETATM   27  O   UNL     1      33.835  60.667  35.341  1.00  0.00    -0.189 OA
HETATM   28  C   UNL     1      34.284  61.535  33.149  1.00  0.00     0.085 C 
HETATM   29  H   UNL     1      32.713  63.016  35.739  1.00  0.00     0.320 HD
ENDBRANCH  22  25
ENDBRANCH  16  19
ENDBRANCH  14  16
ENDBRANCH   9  14
BRANCH  10  30
HETATM   30  O   UNL     1      33.283  67.043  29.092  1.00  0.00    -0.391 OA
HETATM   31  H   UNL     1      33.815  66.403  29.571  1.00  0.00     0.210 HD
ENDBRANCH  10  30
BRANCH  11  32
HETATM   32  O   UNL     1      35.238  69.329  29.228  1.00  0.00    -0.349 OA
BRANCH  32  33
HETATM   33  C   UNL     1      36.006  69.928  30.266  1.00  0.00     0.281 C 
HETATM   34  O   UNL     1      35.062  70.820  30.834  1.00  0.00    -0.352 OA
HETATM   35  C   UNL     1      35.629  71.611  31.866  1.00  0.00     0.150 C 
HETATM   36  C   UNL     1      36.067  70.696  33.023  1.00  0.00     0.067 C 
HETATM   37  C   UNL     1      37.027  69.601  32.531  1.00  0.00     0.144 C 
HETATM   38  C   UNL     1      36.460  68.879  31.292  1.00  0.00     0.155 C 
BRANCH  35  39
HETATM   39  C   UNL     1      34.593  72.634  32.347  1.00  0.00     0.196 C 
BRANCH  39  40
HETATM   40  O   UNL     1      33.476  72.633  31.482  1.00  0.00    -0.398 OA
HETATM   41  H   UNL     1      33.745  72.265  30.638  1.00  0.00     0.209 HD
ENDBRANCH  39  40
ENDBRANCH  35  39
BRANCH  37  42
HETATM   42  O   UNL     1      38.288  70.164  32.221  1.00  0.00    -0.394 OA
HETATM   43  H   UNL     1      38.716  69.609  31.564  1.00  0.00     0.210 HD
ENDBRANCH  37  42
BRANCH  38  44
HETATM   44  N   UNL     1      37.463  67.989  30.674  1.00  0.00    -0.208 NA
HETATM   45  H   UNL     1      37.408  68.078  29.670  1.00  0.00     0.140 HD
BRANCH  44  46
HETATM   46  S   UNL     1      37.158  66.319  30.988  1.00  0.00     0.215 S 
HETATM   47  O   UNL     1      37.051  65.976  32.629  1.00  0.00    -0.211 OA
HETATM   48  O   UNL     1      35.753  65.840  30.203  1.00  0.00    -0.211 OA
BRANCH  46  49
HETATM   49  C   UNL     1      38.557  65.393  30.307  1.00  0.00     0.134 C 
HETATM   50  C   UNL     1      39.699  65.270  31.325  1.00  0.00     0.024 C 
HETATM   51  C   UNL     1      40.883  64.477  30.764  1.00  0.00     0.018 C 
HETATM   52  C   UNL     1      41.418  65.107  29.470  1.00  0.00     0.240 C 
HETATM   53  C   UNL     1      40.284  65.217  28.443  1.00  0.00     0.032 C 
HETATM   54  C   UNL     1      39.086  65.999  28.999  1.00  0.00     0.018 C 
BRANCH  52  55
HETATM   55  N   UNL     1      42.542  64.325  28.910  1.00  0.00     0.133 N 
HETATM   56  C   UNL     1      43.792  64.424  29.694  1.00  0.00     0.352 C 
HETATM   57  C   UNL     1      44.351  65.848  29.739  1.00  0.00     0.085 C 
HETATM   58  O   UNL     1      44.842  63.521  29.431  1.00  0.00    -0.189 OA
HETATM   59  H   UNL     1      42.266  63.355  28.857  1.00  0.00     0.320 HD
ENDBRANCH  52  55
ENDBRANCH  46  49
ENDBRANCH  44  46
ENDBRANCH  38  44
ENDBRANCH  32  33
ENDBRANCH  11  32
BRANCH  12  60
HETATM   60  C   UNL     1      33.647  71.262  27.502  1.00  0.00     0.198 C 
BRANCH  60  61
HETATM   61  O   UNL     1      33.823  72.137  28.595  1.00  0.00    -0.398 OA
HETATM   62  H   UNL     1      33.180  72.846  28.525  1.00  0.00     0.209 HD
ENDBRANCH  60  61
ENDBRANCH  12  60
ENDBRANCH   7   8
ENDBRANCH   3   7
BRANCH   1  63
HETATM   63  C   UNL     1      29.530  70.389  25.838  1.00  0.00     0.198 C 
BRANCH  63  64
HETATM   64  O   UNL     1      28.700  71.277  26.556  1.00  0.00    -0.398 OA
HETATM   65  H   UNL     1      28.736  71.043  27.486  1.00  0.00     0.209 HD
ENDBRANCH  63  64
ENDBRANCH   1  63
BRANCH   2  66
HETATM   66  O   UNL     1      28.997  66.521  28.005  1.00  0.00    -0.391 OA
HETATM   67  H   UNL     1      29.600  66.706  27.281  1.00  0.00     0.210 HD
ENDBRANCH   2  66
BRANCH   6  68
HETATM   68  N   UNL     1      26.481  66.031  27.175  1.00  0.00     0.090 N 
HETATM   69  H   UNL     1      25.521  65.977  26.865  1.00  0.00     0.313 HD
HETATM   70  H   UNL     1      27.072  65.517  26.537  1.00  0.00     0.313 HD
ENDBRANCH   6  68
BRANCH   4  71
HETATM   71  O   UNL     1      26.627  69.283  25.621  1.00  0.00    -0.348 OA
BRANCH  71  72
HETATM   72  C   UNL     1      25.204  69.430  25.652  1.00  0.00     0.186 C 
HETATM   73  C   UNL     1      24.701  70.624  26.493  1.00  0.00     0.179 C 
HETATM   74  O   UNL     1      23.287  70.546  26.585  1.00  0.00    -0.349 OA
HETATM   75  C   UNL     1      22.639  70.643  25.328  1.00  0.00     0.282 C 
HETATM   76  C   UNL     1      23.002  69.452  24.425  1.00  0.00     0.157 C 
HETATM   77  C   UNL     1      24.533  69.402  24.259  1.00  0.00     0.173 C 
BRANCH  73  78
HETATM   78  C   UNL     1      25.256  70.586  27.923  1.00  0.00     0.198 C 
BRANCH  78  79
HETATM   79  O   UNL     1      26.425  71.372  28.013  1.00  0.00    -0.398 OA
HETATM   80  H   UNL     1      26.480  71.925  27.230  1.00  0.00     0.209 HD
ENDBRANCH  78  79
ENDBRANCH  73  78
BRANCH  75  81
HETATM   81  O   UNL     1      21.272  70.586  25.719  1.00  0.00    -0.349 OA
BRANCH  81  82
HETATM   82  C   UNL     1      20.957  69.950  26.962  1.00  0.00     0.186 C 
HETATM   83  C   UNL     1      19.993  70.722  27.894  1.00  0.00     0.176 C 
HETATM   84  O   UNL     1      19.841  70.015  29.124  1.00  0.00    -0.379 OA
HETATM   85  C   UNL     1      19.370  68.680  28.986  1.00  0.00     0.191 C 
HETATM   86  C   UNL     1      20.356  67.840  28.158  1.00  0.00     0.126 C 
HETATM   87  C   UNL     1      20.510  68.485  26.770  1.00  0.00     0.170 C 
BRANCH  83  88
HETATM   88  C   UNL     1      20.545  72.109  28.251  1.00  0.00     0.198 C 
BRANCH  88  89
HETATM   89  O   UNL     1      21.947  72.048  28.410  1.00  0.00    -0.398 OA
HETATM   90  H   UNL     1      22.357  72.461  27.647  1.00  0.00     0.209 HD
ENDBRANCH  88  89
ENDBRANCH  83  88
BRANCH  86  91
HETATM   91  N   UNL     1      19.894  66.437  28.079  1.00  0.00    -0.210 NA
HETATM   92  H   UNL     1      18.890  66.421  28.191  1.00  0.00     0.140 HD
BRANCH  91  93
HETATM   93  S   UNL     1      20.509  65.494  29.393  1.00  0.00     0.215 S 
HETATM   94  O   UNL     1      19.866  65.952  30.876  1.00  0.00    -0.211 OA
HETATM   95  O   UNL     1      20.218  63.860  29.132  1.00  0.00    -0.211 OA
BRANCH  93  96
HETATM   96  C   UNL     1      22.301  65.732  29.472  1.00  0.00     0.134 C 
HETATM   97  C   UNL     1      23.071  64.418  29.292  1.00  0.00     0.024 C 
HETATM   98  C   UNL     1      24.585  64.651  29.329  1.00  0.00     0.018 C 
HETATM   99  C   UNL     1      25.025  65.322  30.639  1.00  0.00     0.240 C 
HETATM  100  C   UNL     1      24.262  66.639  30.824  1.00  0.00     0.032 C 
HETATM  101  C   UNL     1      22.743  66.428  30.769  1.00  0.00     0.018 C 
BRANCH  99 102
HETATM  102  N   UNL     1      26.481  65.571  30.654  1.00  0.00     0.133 N 
HETATM  103  C   UNL     1      27.293  64.340  30.559  1.00  0.00     0.352 C 
HETATM  104  C   UNL     1      27.136  63.446  31.790  1.00  0.00     0.085 C 
HETATM  105  O   UNL     1      28.662  64.442  30.231  1.00  0.00    -0.189 OA
HETATM  106  H   UNL     1      26.714  66.179  29.882  1.00  0.00     0.320 HD
ENDBRANCH  99 102
ENDBRANCH  93  96
ENDBRANCH  91  93
ENDBRANCH  86  91
BRANCH  87 107
HETATM  107  O   UNL     1      19.282  68.357  26.079  1.00  0.00    -0.391 OA
HETATM  108  H   UNL     1      19.460  68.389  25.136  1.00  0.00     0.210 HD
ENDBRANCH  87 107
ENDBRANCH  81  82
ENDBRANCH  75  81
BRANCH  76 109
HETATM  109  N   UNL     1      22.327  69.600  23.121  1.00  0.00    -0.208 NA
HETATM  110  H   UNL     1      21.777  70.448  23.126  1.00  0.00     0.140 HD
BRANCH 109 111
HETATM  111  S   UNL     1      21.187  68.342  22.818  1.00  0.00     0.215 S 
HETATM  112  O   UNL     1      21.370  67.034  23.858  1.00  0.00    -0.211 OA
HETATM  113  O   UNL     1      19.631  68.966  22.937  1.00  0.00    -0.211 OA
BRANCH 111 114
HETATM  114  C   UNL     1      21.469  67.789  21.119  1.00  0.00     0.134 C 
HETATM  115  C   UNL     1      22.327  68.789  20.332  1.00  0.00     0.024 C 
HETATM  116  C   UNL     1      22.568  68.325  18.892  1.00  0.00     0.018 C 
HETATM  117  C   UNL     1      21.248  68.103  18.147  1.00  0.00     0.240 C 
HETATM  118  C   UNL     1      20.382  67.092  18.913  1.00  0.00     0.032 C 
HETATM  119  C   UNL     1      20.155  67.524  20.367  1.00  0.00     0.018 C 
BRANCH 117 120
HETATM  120  N   UNL     1      21.519  67.644  16.769  1.00  0.00     0.133 N 
HETATM  121  C   UNL     1      20.430  66.831  16.188  1.00  0.00     0.352 C 
HETATM  122  C   UNL     1      19.227  67.694  15.790  1.00  0.00     0.085 C 
HETATM  123  O   UNL     1      20.730  65.943  15.132  1.00  0.00    -0.189 OA
HETATM  124  H   UNL     1      22.371  67.102  16.772  1.00  0.00     0.320 HD
ENDBRANCH 117 120
ENDBRANCH 111 114
ENDBRANCH 109 111
ENDBRANCH  76 109
BRANCH  77 125
HETATM  125  O   UNL     1      24.910  70.491  23.437  1.00  0.00    -0.391 OA
HETATM  126  H   UNL     1      25.461  71.084  23.952  1.00  0.00     0.210 HD
ENDBRANCH  77 125
ENDBRANCH  71  72
ENDBRANCH   4  71
TORSDOF 40
ENDMDL
MODEL 5
REMARK VINA RESULT:      -7.0      2.727      4.514
REMARK WARNING: 32 MAX_TORS EXCEEDED!!!
REMARK  40 active torsions:
REMARK  status: ('A' for Active; 'I' for Inactive)
REMARK    1  A    between atoms: C_1  and  O_123 
REMARK    2  A    between atoms: C_2  and  C_6 
REMARK    3  A    between atoms: C_3  and  O_10 
REMARK    4  A    between atoms: C_4  and  N_12 
REMARK    5  A    between atoms: C_5  and  O_124 
REMARK    6  A    between atoms: C_6  and  O_7 
REMARK    7  A    between atoms: N_12  and  S_13 
REMARK    8  A    between atoms: S_13  and  C_17 
REMARK    9  A    between atoms: C_20  and  N_23 
REMARK       I    between atoms: N_23  and  C_24 
REMARK   10  A    between atoms: O_29  and  C_33 
REMARK   11  A    between atoms: O_30  and  C_34 
REMARK   12  A    between atoms: C_31  and  C_34 
REMARK   13  A    between atoms: C_36  and  O_124 
REMARK   14  A    between atoms: N_37  and  C_40 
REMARK   15  A    between atoms: C_38  and  O_125 
REMARK   16  A    between atoms: O_42  and  C_46 
REMARK   17  A    between atoms: O_43  and  C_47 
REMARK   18  A    between atoms: C_44  and  C_47 
REMARK   19  A    between atoms: C_49  and  O_125 
REMARK   20  A    between atoms: N_50  and  S_61 
REMARK   21  A    between atoms: N_50  and  C_53 
REMARK   22  A    between atoms: C_51  and  O_126 
REMARK   23  A    between atoms: C_56  and  N_63 
REMARK   24  A    between atoms: C_59  and  S_61 
REMARK       I    between atoms: C_62  and  N_63 
REMARK   25  A    between atoms: O_69  and  C_73 
REMARK   26  A    between atoms: O_70  and  C_74 
REMARK   27  A    between atoms: C_71  and  C_74 
REMARK   28  A    between atoms: C_76  and  O_126 
REMARK   29  A    between atoms: N_77  and  S_88 
REMARK   30  A    between atoms: N_77  and  C_80 
REMARK   31  A    between atoms: C_83  and  N_90 
REMARK   32  A    between atoms: C_86  and  S_88 
REMARK       I    between atoms: C_89  and  N_90 
REMARK   33  A    between atoms: O_96  and  C_100 
REMARK   34  A    between atoms: O_97  and  C_101 
REMARK   35  A    between atoms: C_98  and  C_101 
REMARK   36  A    between atoms: N_104  and  S_115 
REMARK   37  A    between atoms: N_104  and  C_107 
REMARK   38  A    between atoms: C_105  and  O_123 
REMARK   39  A    between atoms: C_110  and  N_117 
REMARK   40  A    between atoms: C_113  and  S_115 
REMARK       I    between atoms: C_116  and  N_117 
ROOT
HETATM    1  C   UNL     1      23.658  71.189  25.500  1.00  0.00     0.179 C 
HETATM    2  C   UNL     1      22.172  70.691  27.503  1.00  0.00     0.187 C 
HETATM    3  C   UNL     1      22.521  70.293  26.055  1.00  0.00     0.186 C 
HETATM    4  C   UNL     1      24.737  70.801  27.682  1.00  0.00     0.296 C 
HETATM    5  O   UNL     1      24.574  71.617  26.517  1.00  0.00    -0.349 OA
HETATM    6  C   UNL     1      23.409  70.462  28.392  1.00  0.00     0.303 C 
ENDROOT
BRANCH   3   7
HETATM    7  O   UNL     1      21.359  70.181  25.231  1.00  0.00    -0.349 OA
BRANCH   7   8
HETATM    8  C   UNL     1      20.667  68.939  25.226  1.00  0.00     0.282 C 
HETATM    9  C   UNL     1      20.493  68.428  23.792  1.00  0.00     0.157 C 
HETATM   10  C   UNL     1      19.562  67.204  23.830  1.00  0.00     0.173 C 
HETATM   11  C   UNL     1      18.246  67.595  24.543  1.00  0.00     0.186 C 
HETATM   12  C   UNL     1      18.516  68.222  25.932  1.00  0.00     0.179 C 
HETATM   13  O   UNL     1      19.422  69.310  25.792  1.00  0.00    -0.349 OA
BRANCH   9  14
HETATM   14  N   UNL     1      21.814  68.097  23.222  1.00  0.00    -0.208 NA
HETATM   15  H   UNL     1      22.535  68.501  23.803  1.00  0.00     0.140 HD
BRANCH  14  16
HETATM   16  S   UNL     1      22.027  68.828  21.672  1.00  0.00     0.215 S 
HETATM   17  O   UNL     1      21.294  70.337  21.571  1.00  0.00    -0.211 OA
HETATM   18  O   UNL     1      23.667  68.961  21.329  1.00  0.00    -0.211 OA
BRANCH  16  19
HETATM   19  C   UNL     1      21.267  67.731  20.452  1.00  0.00     0.134 C 
HETATM   20  C   UNL     1      22.312  66.851  19.756  1.00  0.00     0.024 C 
HETATM   21  C   UNL     1      21.670  65.903  18.740  1.00  0.00     0.018 C 
HETATM   22  C   UNL     1      20.882  66.680  17.680  1.00  0.00     0.240 C 
HETATM   23  C   UNL     1      19.821  67.556  18.364  1.00  0.00     0.032 C 
HETATM   24  C   UNL     1      20.446  68.495  19.402  1.00  0.00     0.018 C 
BRANCH  22  25
HETATM   25  N   UNL     1      20.279  65.741  16.709  1.00  0.00     0.133 N 
HETATM   26  C   UNL     1      19.552  66.386  15.593  1.00  0.00     0.352 C 
HETATM   27  O   UNL     1      18.730  65.585  14.773  1.00  0.00    -0.189 OA
HETATM   28  C   UNL     1      20.456  67.250  14.708  1.00  0.00     0.085 C 
HETATM   29  H   UNL     1      19.642  65.132  17.201  1.00  0.00     0.320 HD
ENDBRANCH  22  25
ENDBRANCH  16  19
ENDBRANCH  14  16
ENDBRANCH   9  14
BRANCH  10  30
HETATM   30  O   UNL     1      20.260  66.154  24.476  1.00  0.00    -0.391 OA
HETATM   31  H   UNL     1      19.617  65.574  24.892  1.00  0.00     0.210 HD
ENDBRANCH  10  30
BRANCH  11  32
HETATM   32  O   UNL     1      17.274  66.544  24.519  1.00  0.00    -0.349 OA
BRANCH  32  33
HETATM   33  C   UNL     1      16.204  66.658  23.589  1.00  0.00     0.281 C 
HETATM   34  O   UNL     1      16.370  67.989  23.131  1.00  0.00    -0.352 OA
HETATM   35  C   UNL     1      15.345  68.376  22.229  1.00  0.00     0.150 C 
HETATM   36  C   UNL     1      15.427  67.502  20.965  1.00  0.00     0.067 C 
HETATM   37  C   UNL     1      15.360  66.007  21.320  1.00  0.00     0.144 C 
HETATM   38  C   UNL     1      16.364  65.655  22.436  1.00  0.00     0.155 C 
BRANCH  35  39
HETATM   39  C   UNL     1      15.516  69.857  21.874  1.00  0.00     0.196 C 
BRANCH  39  40
HETATM   40  O   UNL     1      16.707  70.044  21.137  1.00  0.00    -0.398 OA
HETATM   41  H   UNL     1      17.009  69.188  20.826  1.00  0.00     0.209 HD
ENDBRANCH  39  40
ENDBRANCH  35  39
BRANCH  37  42
HETATM   42  O   UNL     1      14.051  65.662  21.729  1.00  0.00    -0.394 OA
HETATM   43  H   UNL     1      14.106  64.920  22.336  1.00  0.00     0.210 HD
ENDBRANCH  37  42
BRANCH  38  44
HETATM   44  N   UNL     1      16.155  64.284  22.945  1.00  0.00    -0.208 NA
HETATM   45  H   UNL     1      15.827  64.334  23.899  1.00  0.00     0.140 HD
BRANCH  44  46
HETATM   46  S   UNL     1      17.617  63.371  23.025  1.00  0.00     0.215 S 
HETATM   47  O   UNL     1      18.983  64.305  22.737  1.00  0.00    -0.211 OA
HETATM   48  O   UNL     1      17.735  62.616  24.521  1.00  0.00    -0.211 OA
BRANCH  46  49
HETATM   49  C   UNL     1      17.515  62.105  21.735  1.00  0.00     0.134 C 
HETATM   50  C   UNL     1      18.425  60.909  22.048  1.00  0.00     0.024 C 
HETATM   51  C   UNL     1      18.338  59.825  20.969  1.00  0.00     0.018 C 
HETATM   52  C   UNL     1      18.687  60.384  19.582  1.00  0.00     0.240 C 
HETATM   53  C   UNL     1      17.770  61.569  19.258  1.00  0.00     0.032 C 
HETATM   54  C   UNL     1      17.839  62.656  20.338  1.00  0.00     0.018 C 
BRANCH  52  55
HETATM   55  N   UNL     1      18.573  59.346  18.534  1.00  0.00     0.133 N 
HETATM   56  C   UNL     1      17.277  59.350  17.824  1.00  0.00     0.352 C 
HETATM   57  C   UNL     1      16.095  59.040  18.745  1.00  0.00     0.085 C 
HETATM   58  O   UNL     1      17.143  58.608  16.632  1.00  0.00    -0.189 OA
HETATM   59  H   UNL     1      19.315  59.483  17.862  1.00  0.00     0.320 HD
ENDBRANCH  52  55
ENDBRANCH  46  49
ENDBRANCH  44  46
ENDBRANCH  38  44
ENDBRANCH  32  33
ENDBRANCH  11  32
BRANCH  12  60
HETATM   60  C   UNL     1      17.240  68.796  26.562  1.00  0.00     0.198 C 
BRANCH  60  61
HETATM   61  O   UNL     1      16.490  69.487  25.586  1.00  0.00    -0.398 OA
HETATM   62  H   UNL     1      16.586  69.030  24.748  1.00  0.00     0.209 HD
ENDBRANCH  60  61
ENDBRANCH  12  60
ENDBRANCH   7   8
ENDBRANCH   3   7
BRANCH   1  63
HETATM   63  C   UNL     1      24.378  70.504  24.329  1.00  0.00     0.198 C 
BRANCH  63  64
HETATM   64  O   UNL     1      24.243  69.103  24.433  1.00  0.00    -0.398 OA
HETATM   65  H   UNL     1      25.115  68.707  24.375  1.00  0.00     0.209 HD
ENDBRANCH  63  64
ENDBRANCH   1  63
BRANCH   2  66
HETATM   66  O   UNL     1      21.763  72.044  27.604  1.00  0.00    -0.391 OA
HETATM   67  H   UNL     1      21.558  72.366  26.723  1.00  0.00     0.210 HD
ENDBRANCH   2  66
BRANCH   6  68
HETATM   68  N   UNL     1      23.293  71.207  29.658  1.00  0.00     0.090 N 
HETATM   69  H   UNL     1      23.019  72.160  29.467  1.00  0.00     0.313 HD
HETATM   70  H   UNL     1      22.599  70.767  30.246  1.00  0.00     0.313 HD
ENDBRANCH   6  68
BRANCH   4  71
HETATM   71  O   UNL     1      25.353  69.628  27.154  1.00  0.00    -0.348 OA
BRANCH  71  72
HETATM   72  C   UNL     1      26.462  69.078  27.871  1.00  0.00     0.186 C 
HETATM   73  C   UNL     1      26.280  67.605  28.301  1.00  0.00     0.179 C 
HETATM   74  O   UNL     1      27.361  67.248  29.149  1.00  0.00    -0.349 OA
HETATM   75  C   UNL     1      28.623  67.323  28.507  1.00  0.00     0.282 C 
HETATM   76  C   UNL     1      28.953  68.770  28.104  1.00  0.00     0.157 C 
HETATM   77  C   UNL     1      27.831  69.300  27.189  1.00  0.00     0.173 C 
BRANCH  73  78
HETATM   78  C   UNL     1      24.986  67.401  29.099  1.00  0.00     0.198 C 
BRANCH  78  79
HETATM   79  O   UNL     1      23.931  67.041  28.231  1.00  0.00    -0.398 OA
HETATM   80  H   UNL     1      23.307  66.501  28.720  1.00  0.00     0.209 HD
ENDBRANCH  78  79
ENDBRANCH  73  78
BRANCH  75  81
HETATM   81  O   UNL     1      29.486  66.876  29.547  1.00  0.00    -0.349 OA
BRANCH  81  82
HETATM   82  C   UNL     1      29.067  67.081  30.900  1.00  0.00     0.186 C 
HETATM   83  C   UNL     1      28.957  65.810  31.776  1.00  0.00     0.176 C 
HETATM   84  O   UNL     1      28.447  66.155  33.064  1.00  0.00    -0.379 OA
HETATM   85  C   UNL     1      29.213  67.126  33.764  1.00  0.00     0.191 C 
HETATM   86  C   UNL     1      29.258  68.449  32.982  1.00  0.00     0.126 C 
HETATM   87  C   UNL     1      29.884  68.186  31.602  1.00  0.00     0.170 C 
BRANCH  83  88
HETATM   88  C   UNL     1      27.976  64.794  31.173  1.00  0.00     0.198 C 
BRANCH  88  89
HETATM   89  O   UNL     1      28.461  64.330  29.931  1.00  0.00    -0.398 OA
HETATM   90  H   UNL     1      27.720  64.253  29.326  1.00  0.00     0.209 HD
ENDBRANCH  88  89
ENDBRANCH  83  88
BRANCH  86  91
HETATM   91  N   UNL     1      29.997  69.474  33.750  1.00  0.00    -0.210 NA
HETATM   92  H   UNL     1      30.639  69.009  34.376  1.00  0.00     0.140 HD
BRANCH  91  93
HETATM   93  S   UNL     1      28.939  70.377  34.780  1.00  0.00     0.215 S 
HETATM   94  O   UNL     1      27.487  69.583  35.072  1.00  0.00    -0.211 OA
HETATM   95  O   UNL     1      29.694  70.725  36.240  1.00  0.00    -0.211 OA
BRANCH  93  96
HETATM   96  C   UNL     1      28.556  71.946  33.967  1.00  0.00     0.134 C 
HETATM   97  C   UNL     1      27.065  72.079  33.630  1.00  0.00     0.024 C 
HETATM   98  C   UNL     1      26.761  73.429  32.974  1.00  0.00     0.018 C 
HETATM   99  C   UNL     1      27.590  73.640  31.698  1.00  0.00     0.240 C 
HETATM  100  C   UNL     1      29.082  73.513  32.027  1.00  0.00     0.032 C 
HETATM  101  C   UNL     1      29.402  72.174  32.705  1.00  0.00     0.018 C 
BRANCH  99 102
HETATM  102  N   UNL     1      27.314  74.957  31.088  1.00  0.00     0.133 N 
HETATM  103  C   UNL     1      26.170  74.948  30.152  1.00  0.00     0.352 C 
HETATM  104  C   UNL     1      26.447  74.100  28.908  1.00  0.00     0.085 C 
HETATM  105  O   UNL     1      25.593  76.174  29.759  1.00  0.00    -0.189 OA
HETATM  106  H   UNL     1      27.131  75.624  31.824  1.00  0.00     0.320 HD
ENDBRANCH  99 102
ENDBRANCH  93  96
ENDBRANCH  91  93
ENDBRANCH  86  91
BRANCH  87 107
HETATM  107  O   UNL     1      31.246  67.849  31.786  1.00  0.00    -0.391 OA
HETATM  108  H   UNL     1      31.467  67.976  32.711  1.00  0.00     0.210 HD
ENDBRANCH  87 107
ENDBRANCH  81  82
ENDBRANCH  75  81
BRANCH  76 109
HETATM  109  N   UNL     1      30.261  68.804  27.422  1.00  0.00    -0.208 NA
HETATM  110  H   UNL     1      30.823  68.027  27.741  1.00  0.00     0.140 HD
BRANCH 109 111
HETATM  111  S   UNL     1      31.183  70.205  27.824  1.00  0.00     0.215 S 
HETATM  112  O   UNL     1      31.588  71.126  26.478  1.00  0.00    -0.211 OA
HETATM  113  O   UNL     1      30.320  71.135  28.927  1.00  0.00    -0.211 OA
BRANCH 111 114
HETATM  114  C   UNL     1      32.699  69.615  28.614  1.00  0.00     0.134 C 
HETATM  115  C   UNL     1      33.951  70.192  27.940  1.00  0.00     0.024 C 
HETATM  116  C   UNL     1      35.238  69.695  28.606  1.00  0.00     0.018 C 
HETATM  117  C   UNL     1      35.322  68.165  28.591  1.00  0.00     0.240 C 
HETATM  118  C   UNL     1      34.083  67.570  29.276  1.00  0.00     0.032 C 
HETATM  119  C   UNL     1      32.782  68.080  28.643  1.00  0.00     0.018 C 
BRANCH 117 120
HETATM  120  N   UNL     1      36.567  67.722  29.252  1.00  0.00     0.133 N 
HETATM  121  C   UNL     1      37.578  67.184  28.317  1.00  0.00     0.352 C 
HETATM  122  C   UNL     1      38.260  68.298  27.516  1.00  0.00     0.085 C 
HETATM  123  O   UNL     1      38.562  66.301  28.812  1.00  0.00    -0.189 OA
HETATM  124  H   UNL     1      36.334  67.014  29.933  1.00  0.00     0.320 HD
ENDBRANCH 117 120
ENDBRANCH 111 114
ENDBRANCH 109 111
ENDBRANCH  76 109
BRANCH  77 125
HETATM  125  O   UNL     1      27.947  68.638  25.943  1.00  0.00    -0.391 OA
HETATM  126  H   UNL     1      28.664  68.002  26.003  1.00  0.00     0.210 HD
ENDBRANCH  77 125
ENDBRANCH  71  72
ENDBRANCH   4  71
TORSDOF 40
ENDMDL
MODEL 6
REMARK VINA RESULT:      -6.9      4.023     16.848
REMARK WARNING: 32 MAX_TORS EXCEEDED!!!
REMARK  40 active torsions:
REMARK  status: ('A' for Active; 'I' for Inactive)
REMARK    1  A    between atoms: C_1  and  O_123 
REMARK    2  A    between atoms: C_2  and  C_6 
REMARK    3  A    between atoms: C_3  and  O_10 
REMARK    4  A    between atoms: C_4  and  N_12 
REMARK    5  A    between atoms: C_5  and  O_124 
REMARK    6  A    between atoms: C_6  and  O_7 
REMARK    7  A    between atoms: N_12  and  S_13 
REMARK    8  A    between atoms: S_13  and  C_17 
REMARK    9  A    between atoms: C_20  and  N_23 
REMARK       I    between atoms: N_23  and  C_24 
REMARK   10  A    between atoms: O_29  and  C_33 
REMARK   11  A    between atoms: O_30  and  C_34 
REMARK   12  A    between atoms: C_31  and  C_34 
REMARK   13  A    between atoms: C_36  and  O_124 
REMARK   14  A    between atoms: N_37  and  C_40 
REMARK   15  A    between atoms: C_38  and  O_125 
REMARK   16  A    between atoms: O_42  and  C_46 
REMARK   17  A    between atoms: O_43  and  C_47 
REMARK   18  A    between atoms: C_44  and  C_47 
REMARK   19  A    between atoms: C_49  and  O_125 
REMARK   20  A    between atoms: N_50  and  S_61 
REMARK   21  A    between atoms: N_50  and  C_53 
REMARK   22  A    between atoms: C_51  and  O_126 
REMARK   23  A    between atoms: C_56  and  N_63 
REMARK   24  A    between atoms: C_59  and  S_61 
REMARK       I    between atoms: C_62  and  N_63 
REMARK   25  A    between atoms: O_69  and  C_73 
REMARK   26  A    between atoms: O_70  and  C_74 
REMARK   27  A    between atoms: C_71  and  C_74 
REMARK   28  A    between atoms: C_76  and  O_126 
REMARK   29  A    between atoms: N_77  and  S_88 
REMARK   30  A    between atoms: N_77  and  C_80 
REMARK   31  A    between atoms: C_83  and  N_90 
REMARK   32  A    between atoms: C_86  and  S_88 
REMARK       I    between atoms: C_89  and  N_90 
REMARK   33  A    between atoms: O_96  and  C_100 
REMARK   34  A    between atoms: O_97  and  C_101 
REMARK   35  A    between atoms: C_98  and  C_101 
REMARK   36  A    between atoms: N_104  and  S_115 
REMARK   37  A    between atoms: N_104  and  C_107 
REMARK   38  A    between atoms: C_105  and  O_123 
REMARK   39  A    between atoms: C_110  and  N_117 
REMARK   40  A    between atoms: C_113  and  S_115 
REMARK       I    between atoms: C_116  and  N_117 
ROOT
HETATM    1  C   UNL     1      27.788  70.412  27.272  1.00  0.00     0.179 C 
HETATM    2  C   UNL     1      28.174  67.899  27.265  1.00  0.00     0.187 C 
HETATM    3  C   UNL     1      28.006  69.151  28.147  1.00  0.00     0.186 C 
HETATM    4  C   UNL     1      26.217  68.997  26.004  1.00  0.00     0.296 C 
HETATM    5  O   UNL     1      27.097  70.125  26.048  1.00  0.00    -0.349 OA
HETATM    6  C   UNL     1      26.876  67.679  26.464  1.00  0.00     0.303 C 
ENDROOT
BRANCH   3   7
HETATM    7  O   UNL     1      29.029  69.254  29.140  1.00  0.00    -0.349 OA
BRANCH   7   8
HETATM    8  C   UNL     1      30.351  68.885  28.769  1.00  0.00     0.282 C 
HETATM    9  C   UNL     1      31.178  68.534  30.011  1.00  0.00     0.157 C 
HETATM   10  C   UNL     1      32.642  68.352  29.574  1.00  0.00     0.173 C 
HETATM   11  C   UNL     1      33.105  69.623  28.825  1.00  0.00     0.186 C 
HETATM   12  C   UNL     1      32.145  69.982  27.666  1.00  0.00     0.179 C 
HETATM   13  O   UNL     1      30.816  70.079  28.164  1.00  0.00    -0.349 OA
BRANCH   9  14
HETATM   14  N   UNL     1      30.634  67.313  30.637  1.00  0.00    -0.208 NA
HETATM   15  H   UNL     1      29.823  67.009  30.118  1.00  0.00     0.140 HD
BRANCH  14  16
HETATM   16  S   UNL     1      30.052  67.633  32.231  1.00  0.00     0.215 S 
HETATM   17  O   UNL     1      30.322  69.223  32.702  1.00  0.00    -0.211 OA
HETATM   18  O   UNL     1      28.412  67.278  32.316  1.00  0.00    -0.211 OA
BRANCH  16  19
HETATM   19  C   UNL     1      30.942  66.536  33.358  1.00  0.00     0.134 C 
HETATM   20  C   UNL     1      32.336  66.188  32.822  1.00  0.00     0.024 C 
HETATM   21  C   UNL     1      33.104  65.278  33.785  1.00  0.00     0.018 C 
HETATM   22  C   UNL     1      32.333  63.982  34.054  1.00  0.00     0.240 C 
HETATM   23  C   UNL     1      30.938  64.317  34.606  1.00  0.00     0.032 C 
HETATM   24  C   UNL     1      30.165  65.247  33.663  1.00  0.00     0.018 C 
BRANCH  22  25
HETATM   25  N   UNL     1      33.099  63.120  34.980  1.00  0.00     0.133 N 
HETATM   26  C   UNL     1      33.228  61.710  34.552  1.00  0.00     0.352 C 
HETATM   27  O   UNL     1      33.707  60.764  35.483  1.00  0.00    -0.189 OA
HETATM   28  C   UNL     1      33.994  61.551  33.234  1.00  0.00     0.085 C 
HETATM   29  H   UNL     1      32.654  63.144  35.887  1.00  0.00     0.320 HD
ENDBRANCH  22  25
ENDBRANCH  16  19
ENDBRANCH  14  16
ENDBRANCH   9  14
BRANCH  10  30
HETATM   30  O   UNL     1      32.712  67.178  28.785  1.00  0.00    -0.391 OA
HETATM   31  H   UNL     1      33.494  66.685  29.045  1.00  0.00     0.210 HD
ENDBRANCH  10  30
BRANCH  11  32
HETATM   32  O   UNL     1      34.495  69.586  28.485  1.00  0.00    -0.349 OA
BRANCH  32  33
HETATM   33  C   UNL     1      35.391  70.342  29.292  1.00  0.00     0.281 C 
HETATM   34  O   UNL     1      34.526  71.331  29.821  1.00  0.00    -0.352 OA
HETATM   35  C   UNL     1      35.220  72.279  30.617  1.00  0.00     0.150 C 
HETATM   36  C   UNL     1      35.820  71.568  31.843  1.00  0.00     0.067 C 
HETATM   37  C   UNL     1      36.715  70.391  31.419  1.00  0.00     0.144 C 
HETATM   38  C   UNL     1      35.991  69.477  30.411  1.00  0.00     0.155 C 
BRANCH  35  39
HETATM   39  C   UNL     1      34.250  73.383  31.052  1.00  0.00     0.196 C 
BRANCH  39  40
HETATM   40  O   UNL     1      32.923  73.009  30.745  1.00  0.00    -0.398 OA
HETATM   41  H   UNL     1      32.648  73.483  29.957  1.00  0.00     0.209 HD
ENDBRANCH  39  40
ENDBRANCH  35  39
BRANCH  37  42
HETATM   42  O   UNL     1      37.916  70.875  30.850  1.00  0.00    -0.394 OA
HETATM   43  H   UNL     1      38.175  71.672  31.318  1.00  0.00     0.210 HD
ENDBRANCH  37  42
BRANCH  38  44
HETATM   44  N   UNL     1      36.908  68.480  29.824  1.00  0.00    -0.208 NA
HETATM   45  H   UNL     1      36.919  68.594  28.820  1.00  0.00     0.140 HD
BRANCH  44  46
HETATM   46  S   UNL     1      36.383  66.856  30.080  1.00  0.00     0.215 S 
HETATM   47  O   UNL     1      35.674  66.633  31.587  1.00  0.00    -0.211 OA
HETATM   48  O   UNL     1      35.315  66.405  28.865  1.00  0.00    -0.211 OA
BRANCH  46  49
HETATM   49  C   UNL     1      37.856  65.807  29.988  1.00  0.00     0.134 C 
HETATM   50  C   UNL     1      38.500  65.620  31.368  1.00  0.00     0.024 C 
HETATM   51  C   UNL     1      39.740  64.724  31.303  1.00  0.00     0.018 C 
HETATM   52  C   UNL     1      40.784  65.278  30.323  1.00  0.00     0.240 C 
HETATM   53  C   UNL     1      40.149  65.451  28.938  1.00  0.00     0.032 C 
HETATM   54  C   UNL     1      38.897  66.337  28.991  1.00  0.00     0.018 C 
BRANCH  52  55
HETATM   55  N   UNL     1      41.969  64.397  30.236  1.00  0.00     0.133 N 
HETATM   56  C   UNL     1      42.776  64.353  31.474  1.00  0.00     0.352 C 
HETATM   57  C   UNL     1      43.382  65.711  31.835  1.00  0.00     0.085 C 
HETATM   58  O   UNL     1      43.760  63.353  31.619  1.00  0.00    -0.189 OA
HETATM   59  H   UNL     1      41.661  63.461  30.014  1.00  0.00     0.320 HD
ENDBRANCH  52  55
ENDBRANCH  46  49
ENDBRANCH  44  46
ENDBRANCH  38  44
ENDBRANCH  32  33
ENDBRANCH  11  32
BRANCH  12  60
HETATM   60  C   UNL     1      32.477  71.346  27.044  1.00  0.00     0.198 C 
BRANCH  60  61
HETATM   61  O   UNL     1      31.293  72.092  26.858  1.00  0.00    -0.398 OA
HETATM   62  H   UNL     1      31.056  72.060  25.928  1.00  0.00     0.209 HD
ENDBRANCH  60  61
ENDBRANCH  12  60
ENDBRANCH   7   8
ENDBRANCH   3   7
BRANCH   1  63
HETATM   63  C   UNL     1      27.099  71.528  28.072  1.00  0.00     0.198 C 
BRANCH  63  64
HETATM   64  O   UNL     1      26.370  70.970  29.145  1.00  0.00    -0.398 OA
HETATM   65  H   UNL     1      25.581  70.553  28.792  1.00  0.00     0.209 HD
ENDBRANCH  63  64
ENDBRANCH   1  63
BRANCH   2  66
HETATM   66  O   UNL     1      29.266  68.015  26.369  1.00  0.00    -0.391 OA
HETATM   67  H   UNL     1      28.965  67.770  25.491  1.00  0.00     0.210 HD
ENDBRANCH   2  66
BRANCH   6  68
HETATM   68  N   UNL     1      27.111  66.789  25.313  1.00  0.00     0.090 N 
HETATM   69  H   UNL     1      27.981  67.038  24.863  1.00  0.00     0.313 HD
HETATM   70  H   UNL     1      27.158  65.831  25.632  1.00  0.00     0.313 HD
ENDBRANCH   6  68
BRANCH   4  71
HETATM   71  O   UNL     1      25.170  69.386  26.893  1.00  0.00    -0.348 OA
BRANCH  71  72
HETATM   72  C   UNL     1      23.829  69.349  26.398  1.00  0.00     0.186 C 
HETATM   73  C   UNL     1      23.642  69.990  25.004  1.00  0.00     0.179 C 
HETATM   74  O   UNL     1      22.253  70.046  24.718  1.00  0.00    -0.349 OA
HETATM   75  C   UNL     1      21.643  68.768  24.654  1.00  0.00     0.282 C 
HETATM   76  C   UNL     1      21.694  68.062  26.019  1.00  0.00     0.157 C 
HETATM   77  C   UNL     1      23.165  67.955  26.468  1.00  0.00     0.173 C 
BRANCH  73  78
HETATM   78  C   UNL     1      24.177  71.428  24.963  1.00  0.00     0.198 C 
BRANCH  78  79
HETATM   79  O   UNL     1      24.069  72.024  26.239  1.00  0.00    -0.398 OA
HETATM   80  H   UNL     1      24.445  71.424  26.887  1.00  0.00     0.209 HD
ENDBRANCH  78  79
ENDBRANCH  73  78
BRANCH  75  81
HETATM   81  O   UNL     1      20.307  69.120  24.314  1.00  0.00    -0.349 OA
BRANCH  81  82
HETATM   82  C   UNL     1      19.797  68.675  23.053  1.00  0.00     0.186 C 
HETATM   83  C   UNL     1      18.273  68.848  22.838  1.00  0.00     0.176 C 
HETATM   84  O   UNL     1      17.896  68.285  21.583  1.00  0.00    -0.379 OA
HETATM   85  C   UNL     1      18.579  68.828  20.461  1.00  0.00     0.191 C 
HETATM   86  C   UNL     1      20.092  68.580  20.574  1.00  0.00     0.126 C 
HETATM   87  C   UNL     1      20.605  69.240  21.866  1.00  0.00     0.170 C 
BRANCH  83  88
HETATM   88  C   UNL     1      17.466  68.106  23.913  1.00  0.00     0.198 C 
BRANCH  88  89
HETATM   89  O   UNL     1      18.214  67.022  24.421  1.00  0.00    -0.398 OA
HETATM   90  H   UNL     1      18.195  67.064  25.379  1.00  0.00     0.209 HD
ENDBRANCH  88  89
ENDBRANCH  83  88
BRANCH  86  91
HETATM   91  N   UNL     1      20.787  69.086  19.370  1.00  0.00    -0.210 NA
HETATM   92  H   UNL     1      20.106  69.215  18.635  1.00  0.00     0.140 HD
BRANCH  91  93
HETATM   93  S   UNL     1      21.905  67.920  18.749  1.00  0.00     0.215 S 
HETATM   94  O   UNL     1      23.370  68.605  18.297  1.00  0.00    -0.211 OA
HETATM   95  O   UNL     1      22.175  66.705  19.878  1.00  0.00    -0.211 OA
BRANCH  93  96
HETATM   96  C   UNL     1      21.174  67.159  17.280  1.00  0.00     0.134 C 
HETATM   97  C   UNL     1      20.263  68.127  16.514  1.00  0.00     0.024 C 
HETATM   98  C   UNL     1      19.685  67.470  15.257  1.00  0.00     0.018 C 
HETATM   99  C   UNL     1      18.900  66.193  15.593  1.00  0.00     0.240 C 
HETATM  100  C   UNL     1      19.806  65.218  16.355  1.00  0.00     0.032 C 
HETATM  101  C   UNL     1      20.411  65.866  17.607  1.00  0.00     0.018 C 
BRANCH  99 102
HETATM  102  N   UNL     1      18.372  65.548  14.373  1.00  0.00     0.133 N 
HETATM  103  C   UNL     1      17.576  66.457  13.521  1.00  0.00     0.352 C 
HETATM  104  C   UNL     1      16.280  66.902  14.203  1.00  0.00     0.085 C 
HETATM  105  O   UNL     1      17.295  66.083  12.190  1.00  0.00    -0.189 OA
HETATM  106  H   UNL     1      19.147  65.188  13.835  1.00  0.00     0.320 HD
ENDBRANCH  99 102
ENDBRANCH  93  96
ENDBRANCH  91  93
ENDBRANCH  86  91
BRANCH  87 107
HETATM  107  O   UNL     1      20.495  70.643  21.726  1.00  0.00    -0.391 OA
HETATM  108  H   UNL     1      21.304  71.045  22.051  1.00  0.00     0.210 HD
ENDBRANCH  87 107
ENDBRANCH  81  82
ENDBRANCH  75  81
BRANCH  76 109
HETATM  109  N   UNL     1      21.071  66.729  25.906  1.00  0.00    -0.208 NA
HETATM  110  H   UNL     1      20.350  66.759  25.199  1.00  0.00     0.140 HD
BRANCH 109 111
HETATM  111  S   UNL     1      20.250  66.257  27.348  1.00  0.00     0.215 S 
HETATM  112  O   UNL     1      20.686  67.188  28.678  1.00  0.00    -0.211 OA
HETATM  113  O   UNL     1      18.592  66.347  27.094  1.00  0.00    -0.211 OA
BRANCH 111 114
HETATM  114  C   UNL     1      20.704  64.534  27.659  1.00  0.00     0.134 C 
HETATM  115  C   UNL     1      22.206  64.385  27.940  1.00  0.00     0.024 C 
HETATM  116  C   UNL     1      22.595  62.927  28.204  1.00  0.00     0.018 C 
HETATM  117  C   UNL     1      22.213  62.024  27.027  1.00  0.00     0.240 C 
HETATM  118  C   UNL     1      20.709  62.149  26.741  1.00  0.00     0.032 C 
HETATM  119  C   UNL     1      20.294  63.607  26.505  1.00  0.00     0.018 C 
BRANCH 117 120
HETATM  120  N   UNL     1      22.591  60.626  27.321  1.00  0.00     0.133 N 
HETATM  121  C   UNL     1      22.681  60.326  28.766  1.00  0.00     0.352 C 
HETATM  122  C   UNL     1      21.295  60.212  29.410  1.00  0.00     0.085 C 
HETATM  123  O   UNL     1      23.477  59.240  29.188  1.00  0.00    -0.189 OA
HETATM  124  H   UNL     1      23.482  60.435  26.886  1.00  0.00     0.320 HD
ENDBRANCH 117 120
ENDBRANCH 111 114
ENDBRANCH 109 111
ENDBRANCH  76 109
BRANCH  77 125
HETATM  125  O   UNL     1      23.796  66.994  25.642  1.00  0.00    -0.391 OA
HETATM  126  H   UNL     1      23.118  66.510  25.167  1.00  0.00     0.210 HD
ENDBRANCH  77 125
ENDBRANCH  71  72
ENDBRANCH   4  71
TORSDOF 40
ENDMDL
MODEL 7
REMARK VINA RESULT:      -6.8      2.892     16.826
REMARK WARNING: 32 MAX_TORS EXCEEDED!!!
REMARK  40 active torsions:
REMARK  status: ('A' for Active; 'I' for Inactive)
REMARK    1  A    between atoms: C_1  and  O_123 
REMARK    2  A    between atoms: C_2  and  C_6 
REMARK    3  A    between atoms: C_3  and  O_10 
REMARK    4  A    between atoms: C_4  and  N_12 
REMARK    5  A    between atoms: C_5  and  O_124 
REMARK    6  A    between atoms: C_6  and  O_7 
REMARK    7  A    between atoms: N_12  and  S_13 
REMARK    8  A    between atoms: S_13  and  C_17 
REMARK    9  A    between atoms: C_20  and  N_23 
REMARK       I    between atoms: N_23  and  C_24 
REMARK   10  A    between atoms: O_29  and  C_33 
REMARK   11  A    between atoms: O_30  and  C_34 
REMARK   12  A    between atoms: C_31  and  C_34 
REMARK   13  A    between atoms: C_36  and  O_124 
REMARK   14  A    between atoms: N_37  and  C_40 
REMARK   15  A    between atoms: C_38  and  O_125 
REMARK   16  A    between atoms: O_42  and  C_46 
REMARK   17  A    between atoms: O_43  and  C_47 
REMARK   18  A    between atoms: C_44  and  C_47 
REMARK   19  A    between atoms: C_49  and  O_125 
REMARK   20  A    between atoms: N_50  and  S_61 
REMARK   21  A    between atoms: N_50  and  C_53 
REMARK   22  A    between atoms: C_51  and  O_126 
REMARK   23  A    between atoms: C_56  and  N_63 
REMARK   24  A    between atoms: C_59  and  S_61 
REMARK       I    between atoms: C_62  and  N_63 
REMARK   25  A    between atoms: O_69  and  C_73 
REMARK   26  A    between atoms: O_70  and  C_74 
REMARK   27  A    between atoms: C_71  and  C_74 
REMARK   28  A    between atoms: C_76  and  O_126 
REMARK   29  A    between atoms: N_77  and  S_88 
REMARK   30  A    between atoms: N_77  and  C_80 
REMARK   31  A    between atoms: C_83  and  N_90 
REMARK   32  A    between atoms: C_86  and  S_88 
REMARK       I    between atoms: C_89  and  N_90 
REMARK   33  A    between atoms: O_96  and  C_100 
REMARK   34  A    between atoms: O_97  and  C_101 
REMARK   35  A    between atoms: C_98  and  C_101 
REMARK   36  A    between atoms: N_104  and  S_115 
REMARK   37  A    between atoms: N_104  and  C_107 
REMARK   38  A    between atoms: C_105  and  O_123 
REMARK   39  A    between atoms: C_110  and  N_117 
REMARK   40  A    between atoms: C_113  and  S_115 
REMARK       I    between atoms: C_116  and  N_117 
ROOT
HETATM    1  C   UNL     1      27.598  70.460  27.894  1.00  0.00     0.179 C 
HETATM    2  C   UNL     1      26.734  69.525  30.096  1.00  0.00     0.187 C 
HETATM    3  C   UNL     1      27.345  70.755  29.396  1.00  0.00     0.186 C 
HETATM    4  C   UNL     1      25.342  69.466  27.931  1.00  0.00     0.296 C 
HETATM    5  O   UNL     1      26.644  69.543  27.341  1.00  0.00    -0.349 OA
HETATM    6  C   UNL     1      25.367  69.219  29.455  1.00  0.00     0.303 C 
ENDROOT
BRANCH   3   7
HETATM    7  O   UNL     1      28.455  71.292  30.119  1.00  0.00    -0.349 OA
BRANCH   7   8
HETATM    8  C   UNL     1      29.636  70.504  30.200  1.00  0.00     0.282 C 
HETATM    9  C   UNL     1      30.433  70.863  31.459  1.00  0.00     0.157 C 
HETATM   10  C   UNL     1      31.790  70.142  31.387  1.00  0.00     0.173 C 
HETATM   11  C   UNL     1      32.484  70.510  30.054  1.00  0.00     0.186 C 
HETATM   12  C   UNL     1      31.564  70.239  28.840  1.00  0.00     0.179 C 
HETATM   13  O   UNL     1      30.323  70.907  29.027  1.00  0.00    -0.349 OA
BRANCH   9  14
HETATM   14  N   UNL     1      29.665  70.470  32.657  1.00  0.00    -0.208 NA
HETATM   15  H   UNL     1      28.688  70.392  32.413  1.00  0.00     0.140 HD
BRANCH  14  16
HETATM   16  S   UNL     1      29.726  71.699  33.870  1.00  0.00     0.215 S 
HETATM   17  O   UNL     1      29.552  71.075  35.420  1.00  0.00    -0.211 OA
HETATM   18  O   UNL     1      31.174  72.542  33.748  1.00  0.00    -0.211 OA
BRANCH  16  19
HETATM   19  C   UNL     1      28.361  72.839  33.546  1.00  0.00     0.134 C 
HETATM   20  C   UNL     1      27.082  72.091  33.154  1.00  0.00     0.024 C 
HETATM   21  C   UNL     1      25.916  73.051  32.903  1.00  0.00     0.018 C 
HETATM   22  C   UNL     1      26.261  74.064  31.806  1.00  0.00     0.240 C 
HETATM   23  C   UNL     1      27.534  74.831  32.194  1.00  0.00     0.032 C 
HETATM   24  C   UNL     1      28.706  73.882  32.471  1.00  0.00     0.018 C 
BRANCH  22  25
HETATM   25  N   UNL     1      25.117  74.973  31.579  1.00  0.00     0.133 N 
HETATM   26  C   UNL     1      24.689  75.093  30.168  1.00  0.00     0.352 C 
HETATM   27  O   UNL     1      23.791  76.123  29.821  1.00  0.00    -0.189 OA
HETATM   28  C   UNL     1      24.187  73.769  29.580  1.00  0.00     0.085 C 
HETATM   29  H   UNL     1      25.361  75.892  31.922  1.00  0.00     0.320 HD
ENDBRANCH  22  25
ENDBRANCH  16  19
ENDBRANCH  14  16
ENDBRANCH   9  14
BRANCH  10  30
HETATM   30  O   UNL     1      31.548  68.754  31.529  1.00  0.00    -0.391 OA
HETATM   31  H   UNL     1      32.272  68.370  32.029  1.00  0.00     0.210 HD
ENDBRANCH  10  30
BRANCH  11  32
HETATM   32  O   UNL     1      33.808  69.973  29.957  1.00  0.00    -0.349 OA
BRANCH  32  33
HETATM   33  C   UNL     1      34.759  70.702  29.189  1.00  0.00     0.281 C 
HETATM   34  O   UNL     1      34.819  71.924  29.904  1.00  0.00    -0.352 OA
HETATM   35  C   UNL     1      35.664  72.872  29.272  1.00  0.00     0.150 C 
HETATM   36  C   UNL     1      37.108  72.338  29.264  1.00  0.00     0.067 C 
HETATM   37  C   UNL     1      37.182  70.953  28.600  1.00  0.00     0.144 C 
HETATM   38  C   UNL     1      36.124  69.997  29.187  1.00  0.00     0.155 C 
BRANCH  35  39
HETATM   39  C   UNL     1      35.585  74.204  30.026  1.00  0.00     0.196 C 
BRANCH  39  40
HETATM   40  O   UNL     1      34.305  74.357  30.604  1.00  0.00    -0.398 OA
HETATM   41  H   UNL     1      34.044  75.277  30.528  1.00  0.00     0.209 HD
ENDBRANCH  39  40
ENDBRANCH  35  39
BRANCH  37  42
HETATM   42  O   UNL     1      36.996  71.072  27.203  1.00  0.00    -0.394 OA
HETATM   43  H   UNL     1      37.488  70.371  26.769  1.00  0.00     0.210 HD
ENDBRANCH  37  42
BRANCH  38  44
HETATM   44  N   UNL     1      36.029  68.745  28.409  1.00  0.00    -0.208 NA
HETATM   45  H   UNL     1      35.161  68.743  27.894  1.00  0.00     0.140 HD
BRANCH  44  46
HETATM   46  S   UNL     1      35.956  67.341  29.410  1.00  0.00     0.215 S 
HETATM   47  O   UNL     1      35.852  67.713  31.045  1.00  0.00    -0.211 OA
HETATM   48  O   UNL     1      34.655  66.382  28.950  1.00  0.00    -0.211 OA
BRANCH  46  49
HETATM   49  C   UNL     1      37.490  66.420  29.136  1.00  0.00     0.134 C 
HETATM   50  C   UNL     1      37.961  65.718  30.417  1.00  0.00     0.024 C 
HETATM   51  C   UNL     1      39.252  64.926  30.194  1.00  0.00     0.018 C 
HETATM   52  C   UNL     1      40.377  65.824  29.660  1.00  0.00     0.240 C 
HETATM   53  C   UNL     1      39.917  66.515  28.371  1.00  0.00     0.032 C 
HETATM   54  C   UNL     1      38.617  67.302  28.579  1.00  0.00     0.018 C 
BRANCH  52  55
HETATM   55  N   UNL     1      41.616  65.054  29.415  1.00  0.00     0.133 N 
HETATM   56  C   UNL     1      42.146  64.369  30.614  1.00  0.00     0.352 C 
HETATM   57  C   UNL     1      42.559  65.345  31.718  1.00  0.00     0.085 C 
HETATM   58  O   UNL     1      43.148  63.389  30.460  1.00  0.00    -0.189 OA
HETATM   59  H   UNL     1      41.432  64.364  28.700  1.00  0.00     0.320 HD
ENDBRANCH  52  55
ENDBRANCH  46  49
ENDBRANCH  44  46
ENDBRANCH  38  44
ENDBRANCH  32  33
ENDBRANCH  11  32
BRANCH  12  60
HETATM   60  C   UNL     1      32.159  70.784  27.534  1.00  0.00     0.198 C 
BRANCH  60  61
HETATM   61  O   UNL     1      31.313  71.778  26.997  1.00  0.00    -0.398 OA
HETATM   62  H   UNL     1      31.172  72.452  27.666  1.00  0.00     0.209 HD
ENDBRANCH  60  61
ENDBRANCH  12  60
ENDBRANCH   7   8
ENDBRANCH   3   7
BRANCH   1  63
HETATM   63  C   UNL     1      27.681  71.762  27.083  1.00  0.00     0.198 C 
BRANCH  63  64
HETATM   64  O   UNL     1      27.248  72.849  27.871  1.00  0.00    -0.398 OA
HETATM   65  H   UNL     1      26.739  73.444  27.316  1.00  0.00     0.209 HD
ENDBRANCH  63  64
ENDBRANCH   1  63
BRANCH   2  66
HETATM   66  O   UNL     1      27.566  68.383  29.999  1.00  0.00    -0.391 OA
HETATM   67  H   UNL     1      27.519  68.049  29.100  1.00  0.00     0.210 HD
ENDBRANCH   2  66
BRANCH   6  68
HETATM   68  N   UNL     1      24.936  67.844  29.763  1.00  0.00     0.090 N 
HETATM   69  H   UNL     1      25.201  67.228  29.007  1.00  0.00     0.313 HD
HETATM   70  H   UNL     1      25.377  67.537  30.619  1.00  0.00     0.313 HD
ENDBRANCH   6  68
BRANCH   4  71
HETATM   71  O   UNL     1      24.789  70.745  27.626  1.00  0.00    -0.348 OA
BRANCH  71  72
HETATM   72  C   UNL     1      23.580  70.781  26.862  1.00  0.00     0.186 C 
HETATM   73  C   UNL     1      23.655  70.041  25.508  1.00  0.00     0.179 C 
HETATM   74  O   UNL     1      22.463  70.307  24.783  1.00  0.00    -0.349 OA
HETATM   75  C   UNL     1      21.296  69.833  25.433  1.00  0.00     0.282 C 
HETATM   76  C   UNL     1      21.070  70.565  26.766  1.00  0.00     0.157 C 
HETATM   77  C   UNL     1      22.316  70.377  27.655  1.00  0.00     0.173 C 
BRANCH  73  78
HETATM   78  C   UNL     1      24.830  70.534  24.654  1.00  0.00     0.198 C 
BRANCH  78  79
HETATM   79  O   UNL     1      25.709  69.465  24.371  1.00  0.00    -0.398 OA
HETATM   80  H   UNL     1      25.875  68.986  25.186  1.00  0.00     0.209 HD
ENDBRANCH  78  79
ENDBRANCH  73  78
BRANCH  75  81
HETATM   81  O   UNL     1      20.294  70.183  24.485  1.00  0.00    -0.349 OA
BRANCH  81  82
HETATM   82  C   UNL     1      20.039  69.272  23.412  1.00  0.00     0.186 C 
HETATM   83  C   UNL     1      18.596  68.720  23.319  1.00  0.00     0.176 C 
HETATM   84  O   UNL     1      18.512  67.763  22.264  1.00  0.00    -0.379 OA
HETATM   85  C   UNL     1      18.895  68.255  20.986  1.00  0.00     0.191 C 
HETATM   86  C   UNL     1      20.363  68.712  20.998  1.00  0.00     0.126 C 
HETATM   87  C   UNL     1      20.526  69.820  22.054  1.00  0.00     0.170 C 
BRANCH  83  88
HETATM   88  C   UNL     1      18.188  67.991  24.607  1.00  0.00     0.198 C 
BRANCH  88  89
HETATM   89  O   UNL     1      17.280  66.952  24.310  1.00  0.00    -0.398 OA
HETATM   90  H   UNL     1      17.455  66.642  23.419  1.00  0.00     0.209 HD
ENDBRANCH  88  89
ENDBRANCH  83  88
BRANCH  86  91
HETATM   91  N   UNL     1      20.773  69.156  19.648  1.00  0.00    -0.210 NA
HETATM   92  H   UNL     1      19.978  69.083  19.029  1.00  0.00     0.140 HD
BRANCH  91  93
HETATM   93  S   UNL     1      21.968  68.102  18.973  1.00  0.00     0.215 S 
HETATM   94  O   UNL     1      23.367  68.915  18.521  1.00  0.00    -0.211 OA
HETATM   95  O   UNL     1      22.353  66.878  20.057  1.00  0.00    -0.211 OA
BRANCH  93  96
HETATM   96  C   UNL     1      21.274  67.332  17.491  1.00  0.00     0.134 C 
HETATM   97  C   UNL     1      20.338  68.277  16.727  1.00  0.00     0.024 C 
HETATM   98  C   UNL     1      19.791  67.614  15.460  1.00  0.00     0.018 C 
HETATM   99  C   UNL     1      19.046  66.309  15.777  1.00  0.00     0.240 C 
HETATM  100  C   UNL     1      19.977  65.357  16.536  1.00  0.00     0.032 C 
HETATM  101  C   UNL     1      20.551  66.012  17.799  1.00  0.00     0.018 C 
BRANCH  99 102
HETATM  102  N   UNL     1      18.548  65.660  14.546  1.00  0.00     0.133 N 
HETATM  103  C   UNL     1      17.711  66.543  13.708  1.00  0.00     0.352 C 
HETATM  104  C   UNL     1      16.396  66.917  14.395  1.00  0.00     0.085 C 
HETATM  105  O   UNL     1      17.448  66.177  12.371  1.00  0.00    -0.189 OA
HETATM  106  H   UNL     1      19.339  65.345  14.003  1.00  0.00     0.320 HD
ENDBRANCH  99 102
ENDBRANCH  93  96
ENDBRANCH  91  93
ENDBRANCH  86  91
BRANCH  87 107
HETATM  107  O   UNL     1      19.813  70.961  21.618  1.00  0.00    -0.391 OA
HETATM  108  H   UNL     1      20.270  71.744  21.934  1.00  0.00     0.210 HD
ENDBRANCH  87 107
ENDBRANCH  81  82
ENDBRANCH  75  81
BRANCH  76 109
HETATM  109  N   UNL     1      19.860  70.029  27.421  1.00  0.00    -0.208 NA
HETATM  110  H   UNL     1      19.259  69.617  26.722  1.00  0.00     0.140 HD
BRANCH 109 111
HETATM  111  S   UNL     1      18.901  71.262  28.152  1.00  0.00     0.215 S 
HETATM  112  O   UNL     1      18.443  70.883  29.724  1.00  0.00    -0.211 OA
HETATM  113  O   UNL     1      19.753  72.710  28.128  1.00  0.00    -0.211 OA
BRANCH 111 114
HETATM  114  C   UNL     1      17.419  71.436  27.130  1.00  0.00     0.134 C 
HETATM  115  C   UNL     1      16.603  70.137  27.090  1.00  0.00     0.024 C 
HETATM  116  C   UNL     1      15.346  70.280  26.225  1.00  0.00     0.018 C 
HETATM  117  C   UNL     1      15.696  70.696  24.793  1.00  0.00     0.240 C 
HETATM  118  C   UNL     1      16.501  72.004  24.814  1.00  0.00     0.032 C 
HETATM  119  C   UNL     1      17.748  71.891  25.700  1.00  0.00     0.018 C 
BRANCH 117 120
HETATM  120  N   UNL     1      14.461  70.837  23.994  1.00  0.00     0.133 N 
HETATM  121  C   UNL     1      14.656  70.593  22.549  1.00  0.00     0.352 C 
HETATM  122  C   UNL     1      14.824  69.100  22.243  1.00  0.00     0.085 C 
HETATM  123  O   UNL     1      13.740  71.151  21.633  1.00  0.00    -0.189 OA
HETATM  124  H   UNL     1      14.098  71.770  24.126  1.00  0.00     0.320 HD
ENDBRANCH 117 120
ENDBRANCH 111 114
ENDBRANCH 109 111
ENDBRANCH  76 109
BRANCH  77 125
HETATM  125  O   UNL     1      22.336  69.028  28.084  1.00  0.00    -0.391 OA
HETATM  126  H   UNL     1      21.449  68.783  28.356  1.00  0.00     0.210 HD
ENDBRANCH  77 125
ENDBRANCH  71  72
ENDBRANCH   4  71
TORSDOF 40
ENDMDL
MODEL 8
REMARK VINA RESULT:      -6.8      3.009      5.847
REMARK WARNING: 32 MAX_TORS EXCEEDED!!!
REMARK  40 active torsions:
REMARK  status: ('A' for Active; 'I' for Inactive)
REMARK    1  A    between atoms: C_1  and  O_123 
REMARK    2  A    between atoms: C_2  and  C_6 
REMARK    3  A    between atoms: C_3  and  O_10 
REMARK    4  A    between atoms: C_4  and  N_12 
REMARK    5  A    between atoms: C_5  and  O_124 
REMARK    6  A    between atoms: C_6  and  O_7 
REMARK    7  A    between atoms: N_12  and  S_13 
REMARK    8  A    between atoms: S_13  and  C_17 
REMARK    9  A    between atoms: C_20  and  N_23 
REMARK       I    between atoms: N_23  and  C_24 
REMARK   10  A    between atoms: O_29  and  C_33 
REMARK   11  A    between atoms: O_30  and  C_34 
REMARK   12  A    between atoms: C_31  and  C_34 
REMARK   13  A    between atoms: C_36  and  O_124 
REMARK   14  A    between atoms: N_37  and  C_40 
REMARK   15  A    between atoms: C_38  and  O_125 
REMARK   16  A    between atoms: O_42  and  C_46 
REMARK   17  A    between atoms: O_43  and  C_47 
REMARK   18  A    between atoms: C_44  and  C_47 
REMARK   19  A    between atoms: C_49  and  O_125 
REMARK   20  A    between atoms: N_50  and  S_61 
REMARK   21  A    between atoms: N_50  and  C_53 
REMARK   22  A    between atoms: C_51  and  O_126 
REMARK   23  A    between atoms: C_56  and  N_63 
REMARK   24  A    between atoms: C_59  and  S_61 
REMARK       I    between atoms: C_62  and  N_63 
REMARK   25  A    between atoms: O_69  and  C_73 
REMARK   26  A    between atoms: O_70  and  C_74 
REMARK   27  A    between atoms: C_71  and  C_74 
REMARK   28  A    between atoms: C_76  and  O_126 
REMARK   29  A    between atoms: N_77  and  S_88 
REMARK   30  A    between atoms: N_77  and  C_80 
REMARK   31  A    between atoms: C_83  and  N_90 
REMARK   32  A    between atoms: C_86  and  S_88 
REMARK       I    between atoms: C_89  and  N_90 
REMARK   33  A    between atoms: O_96  and  C_100 
REMARK   34  A    between atoms: O_97  and  C_101 
REMARK   35  A    between atoms: C_98  and  C_101 
REMARK   36  A    between atoms: N_104  and  S_115 
REMARK   37  A    between atoms: N_104  and  C_107 
REMARK   38  A    between atoms: C_105  and  O_123 
REMARK   39  A    between atoms: C_110  and  N_117 
REMARK   40  A    between atoms: C_113  and  S_115 
REMARK       I    between atoms: C_116  and  N_117 
ROOT
HETATM    1  C   UNL     1      23.741  71.182  25.483  1.00  0.00     0.179 C 
HETATM    2  C   UNL     1      22.155  70.629  27.393  1.00  0.00     0.187 C 
HETATM    3  C   UNL     1      22.574  70.275  25.953  1.00  0.00     0.186 C 
HETATM    4  C   UNL     1      24.710  70.718  27.702  1.00  0.00     0.296 C 
HETATM    5  O   UNL     1      24.608  71.572  26.558  1.00  0.00    -0.349 OA
HETATM    6  C   UNL     1      23.346  70.364  28.335  1.00  0.00     0.303 C 
ENDROOT
BRANCH   3   7
HETATM    7  O   UNL     1      21.454  70.197  25.068  1.00  0.00    -0.349 OA
BRANCH   7   8
HETATM    8  C   UNL     1      20.720  68.981  25.036  1.00  0.00     0.282 C 
HETATM    9  C   UNL     1      20.526  68.510  23.590  1.00  0.00     0.157 C 
HETATM   10  C   UNL     1      19.554  67.318  23.601  1.00  0.00     0.173 C 
HETATM   11  C   UNL     1      18.253  67.738  24.325  1.00  0.00     0.186 C 
HETATM   12  C   UNL     1      18.546  68.322  25.728  1.00  0.00     0.179 C 
HETATM   13  O   UNL     1      19.488  69.381  25.613  1.00  0.00    -0.349 OA
BRANCH   9  14
HETATM   14  N   UNL     1      21.835  68.147  23.011  1.00  0.00    -0.208 NA
HETATM   15  H   UNL     1      22.570  68.492  23.612  1.00  0.00     0.140 HD
BRANCH  14  16
HETATM   16  S   UNL     1      22.088  68.935  21.495  1.00  0.00     0.215 S 
HETATM   17  O   UNL     1      21.486  70.503  21.482  1.00  0.00    -0.211 OA
HETATM   18  O   UNL     1      23.728  68.945  21.129  1.00  0.00    -0.211 OA
BRANCH  16  19
HETATM   19  C   UNL     1      21.219  67.970  20.237  1.00  0.00     0.134 C 
HETATM   20  C   UNL     1      22.173  67.485  19.140  1.00  0.00     0.024 C 
HETATM   21  C   UNL     1      21.446  66.646  18.085  1.00  0.00     0.018 C 
HETATM   22  C   UNL     1      20.303  67.437  17.441  1.00  0.00     0.240 C 
HETATM   23  C   UNL     1      19.331  67.918  18.530  1.00  0.00     0.032 C 
HETATM   24  C   UNL     1      20.049  68.740  19.607  1.00  0.00     0.018 C 
BRANCH  22  25
HETATM   25  N   UNL     1      19.623  66.607  16.423  1.00  0.00     0.133 N 
HETATM   26  C   UNL     1      19.627  67.175  15.057  1.00  0.00     0.352 C 
HETATM   27  O   UNL     1      18.787  66.594  14.084  1.00  0.00    -0.189 OA
HETATM   28  C   UNL     1      21.037  67.331  14.476  1.00  0.00     0.085 C 
HETATM   29  H   UNL     1      18.666  66.463  16.711  1.00  0.00     0.320 HD
ENDBRANCH  22  25
ENDBRANCH  16  19
ENDBRANCH  14  16
ENDBRANCH   9  14
BRANCH  10  30
HETATM   30  O   UNL     1      20.215  66.229  24.221  1.00  0.00    -0.391 OA
HETATM   31  H   UNL     1      19.681  65.441  24.098  1.00  0.00     0.210 HD
ENDBRANCH  10  30
BRANCH  11  32
HETATM   32  O   UNL     1      17.245  66.722  24.278  1.00  0.00    -0.349 OA
BRANCH  32  33
HETATM   33  C   UNL     1      16.134  66.936  23.415  1.00  0.00     0.281 C 
HETATM   34  O   UNL     1      16.199  68.337  23.216  1.00  0.00    -0.352 OA
HETATM   35  C   UNL     1      15.118  68.816  22.431  1.00  0.00     0.150 C 
HETATM   36  C   UNL     1      15.205  68.204  21.022  1.00  0.00     0.067 C 
HETATM   37  C   UNL     1      15.246  66.668  21.087  1.00  0.00     0.144 C 
HETATM   38  C   UNL     1      16.312  66.181  22.088  1.00  0.00     0.155 C 
BRANCH  35  39
HETATM   39  C   UNL     1      15.183  70.346  22.361  1.00  0.00     0.196 C 
BRANCH  39  40
HETATM   40  O   UNL     1      14.143  70.837  21.541  1.00  0.00    -0.398 OA
HETATM   41  H   UNL     1      13.875  71.697  21.872  1.00  0.00     0.209 HD
ENDBRANCH  39  40
ENDBRANCH  35  39
BRANCH  37  42
HETATM   42  O   UNL     1      13.977  66.163  21.456  1.00  0.00    -0.394 OA
HETATM   43  H   UNL     1      14.093  65.280  21.814  1.00  0.00     0.210 HD
ENDBRANCH  37  42
BRANCH  38  44
HETATM   44  N   UNL     1      16.208  64.728  22.332  1.00  0.00    -0.208 NA
HETATM   45  H   UNL     1      16.181  64.563  23.328  1.00  0.00     0.140 HD
BRANCH  44  46
HETATM   46  S   UNL     1      17.591  63.857  21.775  1.00  0.00     0.215 S 
HETATM   47  O   UNL     1      17.306  63.037  20.337  1.00  0.00    -0.211 OA
HETATM   48  O   UNL     1      18.890  64.907  21.597  1.00  0.00    -0.211 OA
BRANCH  46  49
HETATM   49  C   UNL     1      17.991  62.637  23.052  1.00  0.00     0.134 C 
HETATM   50  C   UNL     1      16.775  62.328  23.936  1.00  0.00     0.024 C 
HETATM   51  C   UNL     1      17.099  61.288  25.012  1.00  0.00     0.018 C 
HETATM   52  C   UNL     1      18.271  61.740  25.895  1.00  0.00     0.240 C 
HETATM   53  C   UNL     1      19.494  62.034  25.018  1.00  0.00     0.032 C 
HETATM   54  C   UNL     1      19.178  63.066  23.927  1.00  0.00     0.018 C 
BRANCH  52  55
HETATM   55  N   UNL     1      18.605  60.722  26.915  1.00  0.00     0.133 N 
HETATM   56  C   UNL     1      17.717  60.742  28.097  1.00  0.00     0.352 C 
HETATM   57  C   UNL     1      17.802  62.055  28.879  1.00  0.00     0.085 C 
HETATM   58  O   UNL     1      17.751  59.660  29.001  1.00  0.00    -0.189 OA
HETATM   59  H   UNL     1      18.559  59.808  26.488  1.00  0.00     0.320 HD
ENDBRANCH  52  55
ENDBRANCH  46  49
ENDBRANCH  44  46
ENDBRANCH  38  44
ENDBRANCH  32  33
ENDBRANCH  11  32
BRANCH  12  60
HETATM   60  C   UNL     1      17.290  68.925  26.373  1.00  0.00     0.198 C 
BRANCH  60  61
HETATM   61  O   UNL     1      17.184  70.292  26.035  1.00  0.00    -0.398 OA
HETATM   62  H   UNL     1      18.010  70.726  26.257  1.00  0.00     0.209 HD
ENDBRANCH  60  61
ENDBRANCH  12  60
ENDBRANCH   7   8
ENDBRANCH   3   7
BRANCH   1  63
HETATM   63  C   UNL     1      24.516  70.531  24.328  1.00  0.00     0.198 C 
BRANCH  63  64
HETATM   64  O   UNL     1      24.280  69.139  24.314  1.00  0.00    -0.398 OA
HETATM   65  H   UNL     1      24.516  68.782  25.173  1.00  0.00     0.209 HD
ENDBRANCH  63  64
ENDBRANCH   1  63
BRANCH   2  66
HETATM   66  O   UNL     1      21.749  71.981  27.518  1.00  0.00    -0.391 OA
HETATM   67  H   UNL     1      21.078  72.034  28.202  1.00  0.00     0.210 HD
ENDBRANCH   2  66
BRANCH   6  68
HETATM   68  N   UNL     1      23.172  71.069  29.617  1.00  0.00     0.090 N 
HETATM   69  H   UNL     1      22.226  70.941  29.948  1.00  0.00     0.313 HD
HETATM   70  H   UNL     1      23.821  70.698  30.296  1.00  0.00     0.313 HD
ENDBRANCH   6  68
BRANCH   4  71
HETATM   71  O   UNL     1      25.345  69.558  27.167  1.00  0.00    -0.348 OA
BRANCH  71  72
HETATM   72  C   UNL     1      26.467  69.026  27.878  1.00  0.00     0.186 C 
HETATM   73  C   UNL     1      26.299  67.561  28.339  1.00  0.00     0.179 C 
HETATM   74  O   UNL     1      27.394  67.224  29.177  1.00  0.00    -0.349 OA
HETATM   75  C   UNL     1      28.645  67.293  28.515  1.00  0.00     0.282 C 
HETATM   76  C   UNL     1      28.963  68.733  28.080  1.00  0.00     0.157 C 
HETATM   77  C   UNL     1      27.826  69.241  27.172  1.00  0.00     0.173 C 
BRANCH  73  78
HETATM   78  C   UNL     1      25.017  67.367  29.159  1.00  0.00     0.198 C 
BRANCH  78  79
HETATM   79  O   UNL     1      25.194  67.872  30.466  1.00  0.00    -0.398 OA
HETATM   80  H   UNL     1      25.147  68.830  30.429  1.00  0.00     0.209 HD
ENDBRANCH  78  79
ENDBRANCH  73  78
BRANCH  75  81
HETATM   81  O   UNL     1      29.525  66.869  29.550  1.00  0.00    -0.349 OA
BRANCH  81  82
HETATM   82  C   UNL     1      29.171  67.183  30.901  1.00  0.00     0.186 C 
HETATM   83  C   UNL     1      29.068  65.982  31.872  1.00  0.00     0.176 C 
HETATM   84  O   UNL     1      28.624  66.432  33.151  1.00  0.00    -0.379 OA
HETATM   85  C   UNL     1      29.444  67.430  33.746  1.00  0.00     0.191 C 
HETATM   86  C   UNL     1      29.487  68.691  32.868  1.00  0.00     0.126 C 
HETATM   87  C   UNL     1      30.045  68.312  31.485  1.00  0.00     0.170 C 
BRANCH  83  88
HETATM   88  C   UNL     1      28.037  64.953  31.386  1.00  0.00     0.198 C 
BRANCH  88  89
HETATM   89  O   UNL     1      28.637  64.059  30.473  1.00  0.00    -0.398 OA
HETATM   90  H   UNL     1      29.577  64.020  30.660  1.00  0.00     0.209 HD
ENDBRANCH  88  89
ENDBRANCH  83  88
BRANCH  86  91
HETATM   91  N   UNL     1      30.284  69.748  33.527  1.00  0.00    -0.210 NA
HETATM   92  H   UNL     1      30.233  69.615  34.527  1.00  0.00     0.140 HD
BRANCH  91  93
HETATM   93  S   UNL     1      29.609  71.317  33.247  1.00  0.00     0.215 S 
HETATM   94  O   UNL     1      28.331  71.286  32.156  1.00  0.00    -0.211 OA
HETATM   95  O   UNL     1      29.100  72.005  34.692  1.00  0.00    -0.211 OA
BRANCH  93  96
HETATM   96  C   UNL     1      30.901  72.376  32.554  1.00  0.00     0.134 C 
HETATM   97  C   UNL     1      31.753  71.646  31.507  1.00  0.00     0.024 C 
HETATM   98  C   UNL     1      32.816  72.573  30.911  1.00  0.00     0.018 C 
HETATM   99  C   UNL     1      33.735  73.156  31.995  1.00  0.00     0.240 C 
HETATM  100  C   UNL     1      32.891  73.891  33.044  1.00  0.00     0.032 C 
HETATM  101  C   UNL     1      31.806  72.983  33.637  1.00  0.00     0.018 C 
BRANCH  99 102
HETATM  102  N   UNL     1      34.738  74.074  31.416  1.00  0.00     0.133 N 
HETATM  103  C   UNL     1      35.572  73.451  30.367  1.00  0.00     0.352 C 
HETATM  104  C   UNL     1      36.472  72.345  30.922  1.00  0.00     0.085 C 
HETATM  105  O   UNL     1      36.329  74.277  29.509  1.00  0.00    -0.189 OA
HETATM  106  H   UNL     1      34.260  74.872  31.025  1.00  0.00     0.320 HD
ENDBRANCH  99 102
ENDBRANCH  93  96
ENDBRANCH  91  93
ENDBRANCH  86  91
BRANCH  87 107
HETATM  107  O   UNL     1      31.405  67.951  31.637  1.00  0.00    -0.391 OA
HETATM  108  H   UNL     1      31.947  68.631  31.230  1.00  0.00     0.210 HD
ENDBRANCH  87 107
ENDBRANCH  81  82
ENDBRANCH  75  81
BRANCH  76 109
HETATM  109  N   UNL     1      30.261  68.760  27.378  1.00  0.00    -0.208 NA
HETATM  110  H   UNL     1      30.830  67.991  27.703  1.00  0.00     0.140 HD
BRANCH 109 111
HETATM  111  S   UNL     1      31.183  70.171  27.743  1.00  0.00     0.215 S 
HETATM  112  O   UNL     1      31.597  71.049  26.371  1.00  0.00    -0.211 OA
HETATM  113  O   UNL     1      30.316  71.136  28.811  1.00  0.00    -0.211 OA
BRANCH 111 114
HETATM  114  C   UNL     1      32.694  69.603  28.559  1.00  0.00     0.134 C 
HETATM  115  C   UNL     1      33.950  70.170  27.884  1.00  0.00     0.024 C 
HETATM  116  C   UNL     1      35.232  69.692  28.572  1.00  0.00     0.018 C 
HETATM  117  C   UNL     1      35.322  68.163  28.589  1.00  0.00     0.240 C 
HETATM  118  C   UNL     1      34.078  67.577  29.275  1.00  0.00     0.032 C 
HETATM  119  C   UNL     1      32.781  68.069  28.620  1.00  0.00     0.018 C 
BRANCH 117 120
HETATM  120  N   UNL     1      36.562  67.738  29.271  1.00  0.00     0.133 N 
HETATM  121  C   UNL     1      37.563  67.138  28.365  1.00  0.00     0.352 C 
HETATM  122  C   UNL     1      38.260  68.199  27.505  1.00  0.00     0.085 C 
HETATM  123  O   UNL     1      38.537  66.269  28.903  1.00  0.00    -0.189 OA
HETATM  124  H   UNL     1      36.321  67.069  29.988  1.00  0.00     0.320 HD
ENDBRANCH 117 120
ENDBRANCH 111 114
ENDBRANCH 109 111
ENDBRANCH  76 109
BRANCH  77 125
HETATM  125  O   UNL     1      27.926  68.556  25.937  1.00  0.00    -0.391 OA
HETATM  126  H   UNL     1      28.282  69.161  25.283  1.00  0.00     0.210 HD
ENDBRANCH  77 125
ENDBRANCH  71  72
ENDBRANCH   4  71
TORSDOF 40
ENDMDL
MODEL 9
REMARK VINA RESULT:      -6.7      3.793      9.189
REMARK WARNING: 32 MAX_TORS EXCEEDED!!!
REMARK  40 active torsions:
REMARK  status: ('A' for Active; 'I' for Inactive)
REMARK    1  A    between atoms: C_1  and  O_123 
REMARK    2  A    between atoms: C_2  and  C_6 
REMARK    3  A    between atoms: C_3  and  O_10 
REMARK    4  A    between atoms: C_4  and  N_12 
REMARK    5  A    between atoms: C_5  and  O_124 
REMARK    6  A    between atoms: C_6  and  O_7 
REMARK    7  A    between atoms: N_12  and  S_13 
REMARK    8  A    between atoms: S_13  and  C_17 
REMARK    9  A    between atoms: C_20  and  N_23 
REMARK       I    between atoms: N_23  and  C_24 
REMARK   10  A    between atoms: O_29  and  C_33 
REMARK   11  A    between atoms: O_30  and  C_34 
REMARK   12  A    between atoms: C_31  and  C_34 
REMARK   13  A    between atoms: C_36  and  O_124 
REMARK   14  A    between atoms: N_37  and  C_40 
REMARK   15  A    between atoms: C_38  and  O_125 
REMARK   16  A    between atoms: O_42  and  C_46 
REMARK   17  A    between atoms: O_43  and  C_47 
REMARK   18  A    between atoms: C_44  and  C_47 
REMARK   19  A    between atoms: C_49  and  O_125 
REMARK   20  A    between atoms: N_50  and  S_61 
REMARK   21  A    between atoms: N_50  and  C_53 
REMARK   22  A    between atoms: C_51  and  O_126 
REMARK   23  A    between atoms: C_56  and  N_63 
REMARK   24  A    between atoms: C_59  and  S_61 
REMARK       I    between atoms: C_62  and  N_63 
REMARK   25  A    between atoms: O_69  and  C_73 
REMARK   26  A    between atoms: O_70  and  C_74 
REMARK   27  A    between atoms: C_71  and  C_74 
REMARK   28  A    between atoms: C_76  and  O_126 
REMARK   29  A    between atoms: N_77  and  S_88 
REMARK   30  A    between atoms: N_77  and  C_80 
REMARK   31  A    between atoms: C_83  and  N_90 
REMARK   32  A    between atoms: C_86  and  S_88 
REMARK       I    between atoms: C_89  and  N_90 
REMARK   33  A    between atoms: O_96  and  C_100 
REMARK   34  A    between atoms: O_97  and  C_101 
REMARK   35  A    between atoms: C_98  and  C_101 
REMARK   36  A    between atoms: N_104  and  S_115 
REMARK   37  A    between atoms: N_104  and  C_107 
REMARK   38  A    between atoms: C_105  and  O_123 
REMARK   39  A    between atoms: C_110  and  N_117 
REMARK   40  A    between atoms: C_113  and  S_115 
REMARK       I    between atoms: C_116  and  N_117 
ROOT
HETATM    1  C   UNL     1      30.190  72.406  29.253  1.00  0.00     0.179 C 
HETATM    2  C   UNL     1      28.029  72.829  30.525  1.00  0.00     0.187 C 
HETATM    3  C   UNL     1      28.642  72.332  29.201  1.00  0.00     0.186 C 
HETATM    4  C   UNL     1      29.948  71.414  31.497  1.00  0.00     0.296 C 
HETATM    5  O   UNL     1      30.712  72.197  30.573  1.00  0.00    -0.349 OA
HETATM    6  C   UNL     1      28.492  71.901  31.664  1.00  0.00     0.303 C 
ENDROOT
BRANCH   3   7
HETATM    7  O   UNL     1      28.029  72.939  28.061  1.00  0.00    -0.349 OA
BRANCH   7   8
HETATM    8  C   UNL     1      27.254  72.109  27.206  1.00  0.00     0.282 C 
HETATM    9  C   UNL     1      25.911  71.770  27.863  1.00  0.00     0.157 C 
HETATM   10  C   UNL     1      25.210  70.709  26.997  1.00  0.00     0.173 C 
HETATM   11  C   UNL     1      26.162  69.504  26.813  1.00  0.00     0.186 C 
HETATM   12  C   UNL     1      27.542  69.946  26.268  1.00  0.00     0.179 C 
HETATM   13  O   UNL     1      28.079  70.960  27.108  1.00  0.00    -0.349 OA
BRANCH   9  14
HETATM   14  N   UNL     1      25.101  72.998  27.989  1.00  0.00    -0.208 NA
HETATM   15  H   UNL     1      25.697  73.758  28.285  1.00  0.00     0.140 HD
BRANCH  14  16
HETATM   16  S   UNL     1      23.920  72.843  29.240  1.00  0.00     0.215 S 
HETATM   17  O   UNL     1      23.673  74.284  30.067  1.00  0.00    -0.211 OA
HETATM   18  O   UNL     1      22.472  72.297  28.587  1.00  0.00    -0.211 OA
BRANCH  16  19
HETATM   19  C   UNL     1      24.534  71.604  30.405  1.00  0.00     0.134 C 
HETATM   20  C   UNL     1      23.720  70.307  30.331  1.00  0.00     0.024 C 
HETATM   21  C   UNL     1      24.251  69.246  31.299  1.00  0.00     0.018 C 
HETATM   22  C   UNL     1      24.244  69.761  32.742  1.00  0.00     0.240 C 
HETATM   23  C   UNL     1      25.070  71.054  32.832  1.00  0.00     0.032 C 
HETATM   24  C   UNL     1      24.564  72.119  31.852  1.00  0.00     0.018 C 
BRANCH  22  25
HETATM   25  N   UNL     1      24.755  68.716  33.655  1.00  0.00     0.133 N 
HETATM   26  C   UNL     1      24.716  69.072  35.090  1.00  0.00     0.352 C 
HETATM   27  O   UNL     1      25.416  68.259  36.006  1.00  0.00    -0.189 OA
HETATM   28  C   UNL     1      23.294  69.307  35.611  1.00  0.00     0.085 C 
HETATM   29  H   UNL     1      25.709  68.502  33.400  1.00  0.00     0.320 HD
ENDBRANCH  22  25
ENDBRANCH  16  19
ENDBRANCH  14  16
ENDBRANCH   9  14
BRANCH  10  30
HETATM   30  O   UNL     1      24.840  71.324  25.777  1.00  0.00    -0.391 OA
HETATM   31  H   UNL     1      24.246  72.053  25.973  1.00  0.00     0.210 HD
ENDBRANCH  10  30
BRANCH  11  32
HETATM   32  O   UNL     1      25.544  68.416  26.116  1.00  0.00    -0.349 OA
BRANCH  32  33
HETATM   33  C   UNL     1      25.253  67.238  26.859  1.00  0.00     0.281 C 
HETATM   34  O   UNL     1      26.096  67.402  27.986  1.00  0.00    -0.352 OA
HETATM   35  C   UNL     1      26.042  66.285  28.860  1.00  0.00     0.150 C 
HETATM   36  C   UNL     1      24.619  66.160  29.435  1.00  0.00     0.067 C 
HETATM   37  C   UNL     1      23.574  66.074  28.310  1.00  0.00     0.144 C 
HETATM   38  C   UNL     1      23.774  67.200  27.276  1.00  0.00     0.155 C 
BRANCH  35  39
HETATM   39  C   UNL     1      27.065  66.474  29.986  1.00  0.00     0.196 C 
BRANCH  39  40
HETATM   40  O   UNL     1      27.448  67.831  30.068  1.00  0.00    -0.398 OA
HETATM   41  H   UNL     1      28.117  67.999  29.401  1.00  0.00     0.209 HD
ENDBRANCH  39  40
ENDBRANCH  35  39
BRANCH  37  42
HETATM   42  O   UNL     1      23.651  64.816  27.669  1.00  0.00    -0.394 OA
HETATM   43  H   UNL     1      24.496  64.756  27.216  1.00  0.00     0.210 HD
ENDBRANCH  37  42
BRANCH  38  44
HETATM   44  N   UNL     1      22.931  66.998  26.081  1.00  0.00    -0.208 NA
HETATM   45  H   UNL     1      23.473  67.215  25.256  1.00  0.00     0.140 HD
BRANCH  44  46
HETATM   46  S   UNL     1      21.585  68.077  26.023  1.00  0.00     0.215 S 
HETATM   47  O   UNL     1      20.147  67.346  26.492  1.00  0.00    -0.211 OA
HETATM   48  O   UNL     1      21.892  69.421  26.983  1.00  0.00    -0.211 OA
BRANCH  46  49
HETATM   49  C   UNL     1      21.413  68.611  24.302  1.00  0.00     0.134 C 
HETATM   50  C   UNL     1      21.179  67.418  23.364  1.00  0.00     0.024 C 
HETATM   51  C   UNL     1      21.020  67.860  21.906  1.00  0.00     0.018 C 
HETATM   52  C   UNL     1      22.240  68.657  21.424  1.00  0.00     0.240 C 
HETATM   53  C   UNL     1      22.468  69.859  22.349  1.00  0.00     0.032 C 
HETATM   54  C   UNL     1      22.616  69.431  23.814  1.00  0.00     0.018 C 
BRANCH  52  55
HETATM   55  N   UNL     1      22.074  69.110  20.026  1.00  0.00     0.133 N 
HETATM   56  C   UNL     1      22.105  68.016  19.032  1.00  0.00     0.352 C 
HETATM   57  C   UNL     1      23.448  67.284  19.000  1.00  0.00     0.085 C 
HETATM   58  O   UNL     1      21.685  68.274  17.711  1.00  0.00    -0.189 OA
HETATM   59  H   UNL     1      21.193  69.599  19.946  1.00  0.00     0.320 HD
ENDBRANCH  52  55
ENDBRANCH  46  49
ENDBRANCH  44  46
ENDBRANCH  38  44
ENDBRANCH  32  33
ENDBRANCH  11  32
BRANCH  12  60
HETATM   60  C   UNL     1      28.557  68.796  26.270  1.00  0.00     0.198 C 
BRANCH  60  61
HETATM   61  O   UNL     1      28.904  68.461  27.597  1.00  0.00    -0.398 OA
HETATM   62  H   UNL     1      28.103  68.225  28.071  1.00  0.00     0.209 HD
ENDBRANCH  60  61
ENDBRANCH  12  60
ENDBRANCH   7   8
ENDBRANCH   3   7
BRANCH   1  63
HETATM   63  C   UNL     1      30.823  71.455  28.227  1.00  0.00     0.198 C 
BRANCH  63  64
HETATM   64  O   UNL     1      30.781  72.036  26.942  1.00  0.00    -0.398 OA
HETATM   65  H   UNL     1      29.953  72.512  26.849  1.00  0.00     0.209 HD
ENDBRANCH  63  64
ENDBRANCH   1  63
BRANCH   2  66
HETATM   66  O   UNL     1      28.402  74.163  30.824  1.00  0.00    -0.391 OA
HETATM   67  H   UNL     1      27.613  74.709  30.810  1.00  0.00     0.210 HD
ENDBRANCH   2  66
BRANCH   6  68
HETATM   68  N   UNL     1      28.309  72.546  32.977  1.00  0.00     0.090 N 
HETATM   69  H   UNL     1      29.211  72.790  33.363  1.00  0.00     0.313 HD
HETATM   70  H   UNL     1      27.751  73.381  32.867  1.00  0.00     0.313 HD
ENDBRANCH   6  68
BRANCH   4  71
HETATM   71  O   UNL     1      29.992  70.114  30.911  1.00  0.00    -0.348 OA
BRANCH  71  72
HETATM   72  C   UNL     1      30.808  69.126  31.547  1.00  0.00     0.186 C 
HETATM   73  C   UNL     1      30.026  68.087  32.381  1.00  0.00     0.179 C 
HETATM   74  O   UNL     1      30.958  67.288  33.093  1.00  0.00    -0.349 OA
HETATM   75  C   UNL     1      31.823  66.549  32.246  1.00  0.00     0.282 C 
HETATM   76  C   UNL     1      32.719  67.486  31.418  1.00  0.00     0.157 C 
HETATM   77  C   UNL     1      31.823  68.440  30.603  1.00  0.00     0.173 C 
BRANCH  73  78
HETATM   78  C   UNL     1      29.115  68.760  33.416  1.00  0.00     0.198 C 
BRANCH  78  79
HETATM   79  O   UNL     1      27.777  68.756  32.963  1.00  0.00    -0.398 OA
HETATM   80  H   UNL     1      27.651  67.991  32.398  1.00  0.00     0.209 HD
ENDBRANCH  78  79
ENDBRANCH  73  78
BRANCH  75  81
HETATM   81  O   UNL     1      32.589  65.826  33.202  1.00  0.00    -0.349 OA
BRANCH  81  82
HETATM   82  C   UNL     1      32.285  66.016  34.587  1.00  0.00     0.186 C 
HETATM   83  C   UNL     1      32.425  64.766  35.490  1.00  0.00     0.176 C 
HETATM   84  O   UNL     1      32.007  65.080  36.817  1.00  0.00    -0.379 OA
HETATM   85  C   UNL     1      32.710  66.158  37.420  1.00  0.00     0.191 C 
HETATM   86  C   UNL     1      32.509  67.454  36.618  1.00  0.00     0.126 C 
HETATM   87  C   UNL     1      33.022  67.232  35.184  1.00  0.00     0.170 C 
BRANCH  83  88
HETATM   88  C   UNL     1      31.526  63.619  35.006  1.00  0.00     0.198 C 
BRANCH  88  89
HETATM   89  O   UNL     1      32.076  63.026  33.849  1.00  0.00    -0.398 OA
HETATM   90  H   UNL     1      32.612  63.681  33.398  1.00  0.00     0.209 HD
ENDBRANCH  88  89
ENDBRANCH  83  88
BRANCH  86  91
HETATM   91  N   UNL     1      33.186  68.585  37.290  1.00  0.00    -0.210 NA
HETATM   92  H   UNL     1      33.284  68.365  38.271  1.00  0.00     0.140 HD
BRANCH  91  93
HETATM   93  S   UNL     1      32.217  70.018  37.244  1.00  0.00     0.215 S 
HETATM   94  O   UNL     1      30.638  69.718  36.755  1.00  0.00    -0.211 OA
HETATM   95  O   UNL     1      32.209  70.772  38.746  1.00  0.00    -0.211 OA
BRANCH  93  96
HETATM   96  C   UNL     1      32.955  71.164  36.053  1.00  0.00     0.134 C 
HETATM   97  C   UNL     1      32.085  71.343  34.803  1.00  0.00     0.024 C 
HETATM   98  C   UNL     1      32.713  72.342  33.827  1.00  0.00     0.018 C 
HETATM   99  C   UNL     1      34.126  71.913  33.404  1.00  0.00     0.240 C 
HETATM  100  C   UNL     1      35.004  71.735  34.650  1.00  0.00     0.032 C 
HETATM  101  C   UNL     1      34.379  70.753  35.649  1.00  0.00     0.018 C 
BRANCH  99 102
HETATM  102  N   UNL     1      34.738  72.897  32.488  1.00  0.00     0.133 N 
HETATM  103  C   UNL     1      34.053  72.994  31.182  1.00  0.00     0.352 C 
HETATM  104  C   UNL     1      34.185  71.708  30.362  1.00  0.00     0.085 C 
HETATM  105  O   UNL     1      34.312  74.103  30.349  1.00  0.00    -0.189 OA
HETATM  106  H   UNL     1      34.728  73.804  32.932  1.00  0.00     0.320 HD
ENDBRANCH  99 102
ENDBRANCH  93  96
ENDBRANCH  91  93
ENDBRANCH  86  91
BRANCH  87 107
HETATM  107  O   UNL     1      34.427  67.072  35.233  1.00  0.00    -0.391 OA
HETATM  108  H   UNL     1      34.827  67.935  35.368  1.00  0.00     0.210 HD
ENDBRANCH  87 107
ENDBRANCH  81  82
ENDBRANCH  75  81
BRANCH  76 109
HETATM  109  N   UNL     1      33.586  66.682  30.536  1.00  0.00    -0.208 NA
HETATM  110  H   UNL     1      33.356  65.704  30.644  1.00  0.00     0.140 HD
BRANCH 109 111
HETATM  111  S   UNL     1      35.252  66.789  30.968  1.00  0.00     0.215 S 
HETATM  112  O   UNL     1      35.486  66.940  32.625  1.00  0.00    -0.211 OA
HETATM  113  O   UNL     1      36.061  65.436  30.387  1.00  0.00    -0.211 OA
BRANCH 111 114
HETATM  114  C   UNL     1      35.905  68.261  30.144  1.00  0.00     0.134 C 
HETATM  115  C   UNL     1      35.986  68.071  28.623  1.00  0.00     0.024 C 
HETATM  116  C   UNL     1      36.538  69.315  27.921  1.00  0.00     0.018 C 
HETATM  117  C   UNL     1      37.926  69.688  28.452  1.00  0.00     0.240 C 
HETATM  118  C   UNL     1      37.861  69.898  29.973  1.00  0.00     0.032 C 
HETATM  119  C   UNL     1      37.280  68.674  30.692  1.00  0.00     0.018 C 
BRANCH 117 120
HETATM  120  N   UNL     1      38.420  70.898  27.763  1.00  0.00     0.133 N 
HETATM  121  C   UNL     1      39.722  71.381  28.270  1.00  0.00     0.352 C 
HETATM  122  C   UNL     1      40.880  70.495  27.796  1.00  0.00     0.085 C 
HETATM  123  O   UNL     1      40.069  72.736  28.077  1.00  0.00    -0.189 OA
HETATM  124  H   UNL     1      37.732  71.631  27.866  1.00  0.00     0.320 HD
ENDBRANCH 117 120
ENDBRANCH 111 114
ENDBRANCH 109 111
ENDBRANCH  76 109
BRANCH  77 125
HETATM  125  O   UNL     1      31.207  67.679  29.581  1.00  0.00    -0.391 OA
HETATM  126  H   UNL     1      30.561  68.233  29.138  1.00  0.00     0.210 HD
ENDBRANCH  77 125
ENDBRANCH  71  72
ENDBRANCH   4  71
TORSDOF 40
ENDMDL
