MODEL 1
REMARK VINA RESULT:     -11.6      0.000      0.000
REMARK  5 active torsions:
REMARK  status: ('A' for Active; 'I' for Inactive)
REMARK    1  A    between atoms: C_2  and  O_55 
REMARK       I    between atoms: C_3  and  O_22 
REMARK       I    between atoms: N_4  and  C_10 
REMARK       I    between atoms: O_5  and  C_11 
REMARK       I    between atoms: C_7  and  C_15 
REMARK       I    between atoms: C_9  and  O_22 
REMARK       I    between atoms: C_15  and  O_16 
REMARK       I    between atoms: O_16  and  C_17 
REMARK       I    between atoms: C_17  and  C_18 
REMARK       I    between atoms: C_18  and  O_20 
REMARK       I    between atoms: C_23  and  O_24 
REMARK       I    between atoms: C_26  and  N_27 
REMARK    2  A    between atoms: C_30  and  O_40 
REMARK       I    between atoms: C_32  and  C_33 
REMARK       I    between atoms: C_33  and  O_34 
REMARK       I    between atoms: O_34  and  C_35 
REMARK       I    between atoms: C_35  and  C_36 
REMARK       I    between atoms: C_36  and  O_38 
REMARK    3  A    between atoms: O_40  and  C_41 
REMARK       I    between atoms: C_42  and  C_43 
REMARK       I    between atoms: C_43  and  O_44 
REMARK       I    between atoms: C_46  and  O_47 
REMARK       I    between atoms: C_49  and  N_50 
REMARK    4  A    between atoms: C_53  and  O_55 
REMARK       I    between atoms: C_56  and  O_57 
REMARK       I    between atoms: C_59  and  N_60 
REMARK    5  A    between atoms: C_63  and  O_64 
REMARK       I    between atoms: O_64  and  C_73 
REMARK       I    between atoms: C_66  and  C_67 
REMARK       I    between atoms: C_67  and  O_68 
REMARK       I    between atoms: O_68  and  C_69 
REMARK       I    between atoms: C_69  and  C_70 
REMARK       I    between atoms: C_70  and  O_71 
REMARK       I    between atoms: C_74  and  O_75 
REMARK       I    between atoms: C_77  and  N_78 
REMARK       I    between atoms: C_83  and  C_84 
REMARK       I    between atoms: C_84  and  O_85 
REMARK       I    between atoms: O_85  and  C_86 
REMARK       I    between atoms: C_86  and  C_87 
REMARK       I    between atoms: C_87  and  O_89 
ROOT
HETATM    1  C   UNL     1      23.049  69.931  24.202  1.00  0.00     0.186 C 
HETATM    2  C   UNL     1      22.508  69.793  22.758  1.00  0.00     0.179 C 
HETATM    3  C   UNL     1      23.537  70.279  21.715  1.00  0.00     0.198 C 
HETATM    4  O   UNL     1      22.979  70.206  20.399  1.00  0.00    -0.398 OA
HETATM    5  H   UNL     1      23.685  70.546  19.809  1.00  0.00     0.209 HD
HETATM    6  C   UNL     1      21.895  69.585  25.169  1.00  0.00     0.187 C 
HETATM    7  O   UNL     1      20.879  70.595  25.129  1.00  0.00    -0.391 OA
HETATM    8  H   UNL     1      21.322  71.420  25.421  1.00  0.00     0.210 HD
HETATM    9  C   UNL     1      21.322  68.184  24.847  1.00  0.00     0.303 C 
HETATM   10  N   UNL     1      20.039  67.989  25.551  1.00  0.00     0.090 N 
HETATM   11  H   UNL     1      19.765  67.013  25.417  1.00  0.00     0.313 HD
HETATM   12  H   UNL     1      20.221  68.107  26.551  1.00  0.00     0.313 HD
HETATM   13  C   UNL     1      21.171  67.857  23.331  1.00  0.00     0.296 C 
HETATM   14  O   UNL     1      22.166  68.429  22.456  1.00  0.00    -0.349 OA
ENDROOT
BRANCH   1  15
HETATM   15  O   UNL     1      24.156  69.026  24.427  1.00  0.00    -0.348 OA
BRANCH  15  16
HETATM   16  C   UNL     1      25.368  69.655  24.906  1.00  0.00     0.297 C 
HETATM   17  C   UNL     1      26.481  68.629  25.281  1.00  0.00     0.303 C 
HETATM   18  C   UNL     1      27.690  69.291  26.032  1.00  0.00     0.188 C 
HETATM   19  N   UNL     1      25.910  67.478  26.015  1.00  0.00     0.090 N 
HETATM   20  C   UNL     1      27.523  70.836  26.089  1.00  0.00     0.196 C 
HETATM   21  O   UNL     1      27.875  68.711  27.331  1.00  0.00    -0.391 OA
HETATM   22  O   UNL     1      28.694  71.638  26.422  1.00  0.00    -0.348 OA
HETATM   23  C   UNL     1      26.145  71.141  26.639  1.00  0.00     0.149 C 
HETATM   24  C   UNL     1      29.159  71.962  27.757  1.00  0.00     0.296 C 
HETATM   25  O   UNL     1      28.247  72.838  28.453  1.00  0.00    -0.351 OA
HETATM   26  C   UNL     1      29.703  70.775  28.599  1.00  0.00     0.301 C 
HETATM   27  C   UNL     1      28.311  72.734  29.893  1.00  0.00     0.155 C 
HETATM   28  C   UNL     1      29.720  72.537  30.367  1.00  0.00     0.057 C 
HETATM   29  C   UNL     1      27.701  74.001  30.529  1.00  0.00     0.200 C 
HETATM   30  C   UNL     1      30.434  71.319  29.856  1.00  0.00     0.163 C 
HETATM   31  O   UNL     1      31.803  71.654  29.584  1.00  0.00    -0.393 OA
HETATM   32  H   UNL     1      31.778  72.370  28.915  1.00  0.00     0.210 HD
HETATM   33  O   UNL     1      26.332  74.117  30.115  1.00  0.00    -0.378 OA
HETATM   34  C   UNL     1      25.744  75.248  30.775  1.00  0.00     0.277 C 
HETATM   35  C   UNL     1      24.309  75.451  30.358  1.00  0.00     0.164 C 
HETATM   36  O   UNL     1      23.660  76.349  30.893  1.00  0.00    -0.648 OA
HETATM   37  O   UNL     1      23.704  74.700  29.407  1.00  0.00    -0.775 OA
HETATM   38  H   UNL     1      24.163  74.021  28.947  1.00  0.00     0.167 HD
HETATM   39  N   UNL     1      30.660  69.958  27.822  1.00  0.00     0.090 N 
HETATM   40  H   UNL     1      30.865  69.126  28.377  1.00  0.00     0.313 HD
HETATM   41  H   UNL     1      30.202  69.639  26.970  1.00  0.00     0.313 HD
HETATM   42  O   UNL     1      25.138  70.543  25.959  1.00  0.00    -0.340 OA
HETATM   43  C   UNL     1      25.855  71.374  28.097  1.00  0.00     0.212 C 
HETATM   44  O   UNL     1      24.568  70.854  28.465  1.00  0.00    -0.378 OA
HETATM   45  C   UNL     1      24.406  71.013  29.882  1.00  0.00     0.277 C 
HETATM   46  C   UNL     1      23.041  70.520  30.278  1.00  0.00     0.164 C 
HETATM   47  O   UNL     1      22.245  71.282  30.822  1.00  0.00    -0.648 OA
HETATM   48  O   UNL     1      22.688  69.233  30.058  1.00  0.00    -0.775 OA
HETATM   49  H   UNL     1      23.287  68.637  29.648  1.00  0.00     0.167 HD
HETATM   50  H   UNL     1      27.078  68.937  27.850  1.00  0.00     0.210 HD
HETATM   51  H   UNL     1      25.539  67.806  26.909  1.00  0.00     0.313 HD
HETATM   52  H   UNL     1      26.667  66.820  26.214  1.00  0.00     0.313 HD
ENDBRANCH  15  16
ENDBRANCH   1  15
BRANCH  13  53
HETATM   53  O   UNL     1      19.813  67.897  22.832  1.00  0.00    -0.348 OA
BRANCH  53  54
HETATM   54  C   UNL     1      19.622  68.104  21.419  1.00  0.00     0.186 C 
HETATM   55  C   UNL     1      18.628  69.286  21.299  1.00  0.00     0.187 C 
HETATM   56  O   UNL     1      18.708  69.960  20.034  1.00  0.00    -0.391 OA
HETATM   57  C   UNL     1      17.194  68.834  21.672  1.00  0.00     0.303 C 
HETATM   58  H   UNL     1      18.284  69.385  19.372  1.00  0.00     0.210 HD
HETATM   59  N   UNL     1      16.234  69.916  21.388  1.00  0.00     0.090 N 
HETATM   60  C   UNL     1      16.767  67.517  20.973  1.00  0.00     0.296 C 
HETATM   61  H   UNL     1      15.339  69.635  21.796  1.00  0.00     0.313 HD
HETATM   62  H   UNL     1      16.545  70.740  21.907  1.00  0.00     0.313 HD
HETATM   63  O   UNL     1      17.742  66.486  21.241  1.00  0.00    -0.349 OA
HETATM   64  C   UNL     1      19.087  66.780  20.803  1.00  0.00     0.180 C 
HETATM   65  C   UNL     1      19.244  66.680  19.265  1.00  0.00     0.203 C 
HETATM   66  O   UNL     1      20.633  66.579  18.918  1.00  0.00    -0.378 OA
HETATM   67  C   UNL     1      20.774  66.587  17.488  1.00  0.00     0.277 C 
HETATM   68  C   UNL     1      20.514  67.961  16.930  1.00  0.00     0.164 C 
HETATM   69  O   UNL     1      19.632  68.126  16.088  1.00  0.00    -0.648 OA
HETATM   70  O   UNL     1      21.215  69.026  17.376  1.00  0.00    -0.775 OA
HETATM   71  H   UNL     1      21.867  68.922  18.045  1.00  0.00     0.167 HD
BRANCH  60  72
HETATM   72  O   UNL     1      16.520  67.709  19.562  1.00  0.00    -0.348 OA
HETATM   73  C   UNL     1      15.510  66.868  18.945  1.00  0.00     0.186 C 
HETATM   74  C   UNL     1      14.070  67.435  19.071  1.00  0.00     0.186 C 
HETATM   75  C   UNL     1      15.540  65.358  19.342  1.00  0.00     0.178 C 
HETATM   76  O   UNL     1      14.024  68.851  18.844  1.00  0.00    -0.391 OA
HETATM   77  C   UNL     1      13.414  67.049  20.418  1.00  0.00     0.289 C 
HETATM   78  H   UNL     1      14.497  69.261  19.595  1.00  0.00     0.210 HD
HETATM   79  N   UNL     1      11.951  67.207  20.316  1.00  0.00     0.088 N 
HETATM   80  C   UNL     1      13.736  65.576  20.765  1.00  0.00     0.167 C 
HETATM   81  H   UNL     1      11.762  68.202  20.174  1.00  0.00     0.313 HD
HETATM   82  H   UNL     1      11.558  66.963  21.229  1.00  0.00     0.313 HD
HETATM   83  O   UNL     1      14.223  64.851  19.623  1.00  0.00    -0.361 OA
HETATM   84  C   UNL     1      16.153  64.521  18.194  1.00  0.00     0.203 C 
HETATM   85  O   UNL     1      16.450  63.189  18.645  1.00  0.00    -0.378 OA
HETATM   86  C   UNL     1      17.760  63.170  19.237  1.00  0.00     0.277 C 
HETATM   87  C   UNL     1      17.991  61.839  19.897  1.00  0.00     0.164 C 
HETATM   88  O   UNL     1      17.952  60.807  19.231  1.00  0.00    -0.648 OA
HETATM   89  O   UNL     1      18.258  61.767  21.220  1.00  0.00    -0.775 OA
HETATM   90  H   UNL     1      18.303  62.547  21.744  1.00  0.00     0.167 HD
ENDBRANCH  60  72
ENDBRANCH  53  54
ENDBRANCH  13  53
TORSDOF 40
ENDMDL
MODEL 2
REMARK VINA RESULT:     -11.5      3.681     13.908
REMARK  5 active torsions:
REMARK  status: ('A' for Active; 'I' for Inactive)
REMARK    1  A    between atoms: C_2  and  O_55 
REMARK       I    between atoms: C_3  and  O_22 
REMARK       I    between atoms: N_4  and  C_10 
REMARK       I    between atoms: O_5  and  C_11 
REMARK       I    between atoms: C_7  and  C_15 
REMARK       I    between atoms: C_9  and  O_22 
REMARK       I    between atoms: C_15  and  O_16 
REMARK       I    between atoms: O_16  and  C_17 
REMARK       I    between atoms: C_17  and  C_18 
REMARK       I    between atoms: C_18  and  O_20 
REMARK       I    between atoms: C_23  and  O_24 
REMARK       I    between atoms: C_26  and  N_27 
REMARK    2  A    between atoms: C_30  and  O_40 
REMARK       I    between atoms: C_32  and  C_33 
REMARK       I    between atoms: C_33  and  O_34 
REMARK       I    between atoms: O_34  and  C_35 
REMARK       I    between atoms: C_35  and  C_36 
REMARK       I    between atoms: C_36  and  O_38 
REMARK    3  A    between atoms: O_40  and  C_41 
REMARK       I    between atoms: C_42  and  C_43 
REMARK       I    between atoms: C_43  and  O_44 
REMARK       I    between atoms: C_46  and  O_47 
REMARK       I    between atoms: C_49  and  N_50 
REMARK    4  A    between atoms: C_53  and  O_55 
REMARK       I    between atoms: C_56  and  O_57 
REMARK       I    between atoms: C_59  and  N_60 
REMARK    5  A    between atoms: C_63  and  O_64 
REMARK       I    between atoms: O_64  and  C_73 
REMARK       I    between atoms: C_66  and  C_67 
REMARK       I    between atoms: C_67  and  O_68 
REMARK       I    between atoms: O_68  and  C_69 
REMARK       I    between atoms: C_69  and  C_70 
REMARK       I    between atoms: C_70  and  O_71 
REMARK       I    between atoms: C_74  and  O_75 
REMARK       I    between atoms: C_77  and  N_78 
REMARK       I    between atoms: C_83  and  C_84 
REMARK       I    between atoms: C_84  and  O_85 
REMARK       I    between atoms: O_85  and  C_86 
REMARK       I    between atoms: C_86  and  C_87 
REMARK       I    between atoms: C_87  and  O_89 
ROOT
HETATM    1  C   UNL     1      23.371  71.114  25.748  1.00  0.00     0.186 C 
HETATM    2  C   UNL     1      24.264  71.866  26.765  1.00  0.00     0.179 C 
HETATM    3  C   UNL     1      23.422  72.701  27.753  1.00  0.00     0.198 C 
HETATM    4  O   UNL     1      24.279  73.439  28.631  1.00  0.00    -0.398 OA
HETATM    5  H   UNL     1      23.669  73.949  29.205  1.00  0.00     0.209 HD
HETATM    6  C   UNL     1      24.301  70.453  24.707  1.00  0.00     0.187 C 
HETATM    7  O   UNL     1      24.929  71.445  23.883  1.00  0.00    -0.391 OA
HETATM    8  H   UNL     1      24.193  71.905  23.427  1.00  0.00     0.210 HD
HETATM    9  C   UNL     1      25.345  69.551  25.411  1.00  0.00     0.303 C 
HETATM   10  N   UNL     1      26.411  69.176  24.461  1.00  0.00     0.090 N 
HETATM   11  H   UNL     1      27.000  68.482  24.925  1.00  0.00     0.313 HD
HETATM   12  H   UNL     1      25.962  68.700  23.674  1.00  0.00     0.313 HD
HETATM   13  C   UNL     1      25.956  70.135  26.719  1.00  0.00     0.296 C 
HETATM   14  O   UNL     1      25.078  70.953  27.521  1.00  0.00    -0.349 OA
ENDROOT
BRANCH   1  15
HETATM   15  O   UNL     1      22.583  70.095  26.407  1.00  0.00    -0.348 OA
BRANCH  15  16
HETATM   16  C   UNL     1      21.917  69.170  25.516  1.00  0.00     0.297 C 
HETATM   17  C   UNL     1      20.481  69.631  25.119  1.00  0.00     0.303 C 
HETATM   18  C   UNL     1      19.671  68.518  24.365  1.00  0.00     0.188 C 
HETATM   19  N   UNL     1      19.759  70.171  26.293  1.00  0.00     0.090 N 
HETATM   20  C   UNL     1      20.567  67.278  24.089  1.00  0.00     0.196 C 
HETATM   21  O   UNL     1      18.470  68.180  25.073  1.00  0.00    -0.391 OA
HETATM   22  O   UNL     1      20.105  66.308  23.103  1.00  0.00    -0.348 OA
HETATM   23  C   UNL     1      21.217  66.865  25.393  1.00  0.00     0.149 C 
HETATM   24  C   UNL     1      19.203  65.200  23.349  1.00  0.00     0.296 C 
HETATM   25  O   UNL     1      19.797  64.193  24.197  1.00  0.00    -0.351 OA
HETATM   26  C   UNL     1      17.737  65.575  23.701  1.00  0.00     0.301 C 
HETATM   27  C   UNL     1      18.838  63.407  24.940  1.00  0.00     0.155 C 
HETATM   28  C   UNL     1      17.614  63.118  24.124  1.00  0.00     0.057 C 
HETATM   29  C   UNL     1      19.500  62.092  25.404  1.00  0.00     0.200 C 
HETATM   30  C   UNL     1      16.843  64.308  23.631  1.00  0.00     0.163 C 
HETATM   31  O   UNL     1      16.376  64.048  22.298  1.00  0.00    -0.393 OA
HETATM   32  H   UNL     1      17.178  63.883  21.759  1.00  0.00     0.210 HD
HETATM   33  O   UNL     1      20.621  62.405  26.243  1.00  0.00    -0.378 OA
HETATM   34  C   UNL     1      21.182  61.181  26.741  1.00  0.00     0.277 C 
HETATM   35  C   UNL     1      22.391  61.434  27.606  1.00  0.00     0.164 C 
HETATM   36  O   UNL     1      22.936  60.476  28.152  1.00  0.00    -0.648 OA
HETATM   37  O   UNL     1      22.916  62.668  27.797  1.00  0.00    -0.775 OA
HETATM   38  H   UNL     1      22.555  63.429  27.380  1.00  0.00     0.167 HD
HETATM   39  N   UNL     1      17.197  66.577  22.757  1.00  0.00     0.090 N 
HETATM   40  H   UNL     1      16.295  66.882  23.125  1.00  0.00     0.313 HD
HETATM   41  H   UNL     1      17.808  67.393  22.760  1.00  0.00     0.313 HD
HETATM   42  O   UNL     1      21.899  67.863  26.005  1.00  0.00    -0.340 OA
HETATM   43  C   UNL     1      20.638  65.842  26.332  1.00  0.00     0.212 C 
HETATM   44  O   UNL     1      20.900  66.182  27.703  1.00  0.00    -0.378 OA
HETATM   45  C   UNL     1      20.231  65.228  28.540  1.00  0.00     0.277 C 
HETATM   46  C   UNL     1      20.536  65.539  29.980  1.00  0.00     0.164 C 
HETATM   47  O   UNL     1      21.091  64.701  30.687  1.00  0.00    -0.648 OA
HETATM   48  O   UNL     1      20.185  66.732  30.511  1.00  0.00    -0.775 OA
HETATM   49  H   UNL     1      19.755  67.382  29.986  1.00  0.00     0.167 HD
HETATM   50  H   UNL     1      18.752  67.783  25.920  1.00  0.00     0.210 HD
HETATM   51  H   UNL     1      19.619  69.420  26.970  1.00  0.00     0.313 HD
HETATM   52  H   UNL     1      18.837  70.487  25.982  1.00  0.00     0.313 HD
ENDBRANCH  15  16
ENDBRANCH   1  15
BRANCH  13  53
HETATM   53  O   UNL     1      27.312  70.624  26.592  1.00  0.00    -0.348 OA
BRANCH  53  54
HETATM   54  C   UNL     1      27.865  71.365  27.697  1.00  0.00     0.186 C 
HETATM   55  C   UNL     1      29.201  71.954  27.180  1.00  0.00     0.187 C 
HETATM   56  O   UNL     1      29.633  73.104  27.924  1.00  0.00    -0.391 OA
HETATM   57  C   UNL     1      30.279  70.846  27.071  1.00  0.00     0.303 C 
HETATM   58  H   UNL     1      29.970  72.785  28.780  1.00  0.00     0.210 HD
HETATM   59  N   UNL     1      31.587  71.445  26.746  1.00  0.00     0.090 N 
HETATM   60  C   UNL     1      30.376  69.958  28.338  1.00  0.00     0.296 C 
HETATM   61  H   UNL     1      32.222  70.674  26.526  1.00  0.00     0.313 HD
HETATM   62  H   UNL     1      31.468  71.980  25.884  1.00  0.00     0.313 HD
HETATM   63  O   UNL     1      29.076  69.413  28.650  1.00  0.00    -0.349 OA
HETATM   64  C   UNL     1      28.040  70.390  28.895  1.00  0.00     0.180 C 
HETATM   65  C   UNL     1      28.198  71.087  30.270  1.00  0.00     0.203 C 
HETATM   66  O   UNL     1      26.968  71.727  30.641  1.00  0.00    -0.378 OA
HETATM   67  C   UNL     1      27.154  72.452  31.868  1.00  0.00     0.277 C 
HETATM   68  C   UNL     1      27.979  73.691  31.641  1.00  0.00     0.164 C 
HETATM   69  O   UNL     1      29.026  73.856  32.266  1.00  0.00    -0.648 OA
HETATM   70  O   UNL     1      27.602  74.607  30.722  1.00  0.00    -0.775 OA
HETATM   71  H   UNL     1      26.823  74.478  30.211  1.00  0.00     0.167 HD
BRANCH  60  72
HETATM   72  O   UNL     1      30.974  70.663  29.448  1.00  0.00    -0.348 OA
HETATM   73  C   UNL     1      32.075  70.010  30.133  1.00  0.00     0.186 C 
HETATM   74  C   UNL     1      33.457  70.275  29.478  1.00  0.00     0.186 C 
HETATM   75  C   UNL     1      31.892  68.488  30.427  1.00  0.00     0.178 C 
HETATM   76  O   UNL     1      33.611  71.642  29.070  1.00  0.00    -0.391 OA
HETATM   77  C   UNL     1      33.742  69.294  28.315  1.00  0.00     0.289 C 
HETATM   78  H   UNL     1      32.981  71.778  28.335  1.00  0.00     0.210 HD
HETATM   79  N   UNL     1      35.189  69.277  28.028  1.00  0.00     0.088 N 
HETATM   80  C   UNL     1      33.290  67.866  28.700  1.00  0.00     0.167 C 
HETATM   81  H   UNL     1      35.443  70.209  27.693  1.00  0.00     0.313 HD
HETATM   82  H   UNL     1      35.332  68.636  27.244  1.00  0.00     0.313 HD
HETATM   83  O   UNL     1      33.078  67.735  30.115  1.00  0.00    -0.361 OA
HETATM   84  C   UNL     1      31.556  68.275  31.923  1.00  0.00     0.203 C 
HETATM   85  O   UNL     1      31.107  66.928  32.151  1.00  0.00    -0.378 OA
HETATM   86  C   UNL     1      29.690  66.854  31.914  1.00  0.00     0.277 C 
HETATM   87  C   UNL     1      29.253  65.416  31.944  1.00  0.00     0.164 C 
HETATM   88  O   UNL     1      29.421  64.742  32.959  1.00  0.00    -0.648 OA
HETATM   89  O   UNL     1      28.662  64.856  30.865  1.00  0.00    -0.775 OA
HETATM   90  H   UNL     1      28.516  65.359  30.084  1.00  0.00     0.167 HD
ENDBRANCH  60  72
ENDBRANCH  53  54
ENDBRANCH  13  53
TORSDOF 40
ENDMDL
MODEL 3
REMARK VINA RESULT:     -11.5      3.864     15.189
REMARK  5 active torsions:
REMARK  status: ('A' for Active; 'I' for Inactive)
REMARK    1  A    between atoms: C_2  and  O_55 
REMARK       I    between atoms: C_3  and  O_22 
REMARK       I    between atoms: N_4  and  C_10 
REMARK       I    between atoms: O_5  and  C_11 
REMARK       I    between atoms: C_7  and  C_15 
REMARK       I    between atoms: C_9  and  O_22 
REMARK       I    between atoms: C_15  and  O_16 
REMARK       I    between atoms: O_16  and  C_17 
REMARK       I    between atoms: C_17  and  C_18 
REMARK       I    between atoms: C_18  and  O_20 
REMARK       I    between atoms: C_23  and  O_24 
REMARK       I    between atoms: C_26  and  N_27 
REMARK    2  A    between atoms: C_30  and  O_40 
REMARK       I    between atoms: C_32  and  C_33 
REMARK       I    between atoms: C_33  and  O_34 
REMARK       I    between atoms: O_34  and  C_35 
REMARK       I    between atoms: C_35  and  C_36 
REMARK       I    between atoms: C_36  and  O_38 
REMARK    3  A    between atoms: O_40  and  C_41 
REMARK       I    between atoms: C_42  and  C_43 
REMARK       I    between atoms: C_43  and  O_44 
REMARK       I    between atoms: C_46  and  O_47 
REMARK       I    between atoms: C_49  and  N_50 
REMARK    4  A    between atoms: C_53  and  O_55 
REMARK       I    between atoms: C_56  and  O_57 
REMARK       I    between atoms: C_59  and  N_60 
REMARK    5  A    between atoms: C_63  and  O_64 
REMARK       I    between atoms: O_64  and  C_73 
REMARK       I    between atoms: C_66  and  C_67 
REMARK       I    between atoms: C_67  and  O_68 
REMARK       I    between atoms: O_68  and  C_69 
REMARK       I    between atoms: C_69  and  C_70 
REMARK       I    between atoms: C_70  and  O_71 
REMARK       I    between atoms: C_74  and  O_75 
REMARK       I    between atoms: C_77  and  N_78 
REMARK       I    between atoms: C_83  and  C_84 
REMARK       I    between atoms: C_84  and  O_85 
REMARK       I    between atoms: O_85  and  C_86 
REMARK       I    between atoms: C_86  and  C_87 
REMARK       I    between atoms: C_87  and  O_89 
ROOT
HETATM    1  C   UNL     1      26.405  70.601  26.219  1.00  0.00     0.186 C 
HETATM    2  C   UNL     1      27.195  71.267  27.372  1.00  0.00     0.179 C 
HETATM    3  C   UNL     1      26.462  72.510  27.920  1.00  0.00     0.198 C 
HETATM    4  O   UNL     1      27.252  73.142  28.934  1.00  0.00    -0.398 OA
HETATM    5  H   UNL     1      26.726  73.923  29.209  1.00  0.00     0.209 HD
HETATM    6  C   UNL     1      27.291  69.482  25.629  1.00  0.00     0.187 C 
HETATM    7  O   UNL     1      28.420  70.037  24.942  1.00  0.00    -0.391 OA
HETATM    8  H   UNL     1      28.041  70.578  24.217  1.00  0.00     0.210 HD
HETATM    9  C   UNL     1      27.726  68.496  26.741  1.00  0.00     0.303 C 
HETATM   10  N   UNL     1      28.810  67.623  26.246  1.00  0.00     0.090 N 
HETATM   11  H   UNL     1      28.972  66.909  26.959  1.00  0.00     0.313 HD
HETATM   12  H   UNL     1      28.453  67.136  25.421  1.00  0.00     0.313 HD
HETATM   13  C   UNL     1      28.126  69.152  28.096  1.00  0.00     0.296 C 
HETATM   14  O   UNL     1      27.405  70.349  28.459  1.00  0.00    -0.349 OA
ENDROOT
BRANCH   1  15
HETATM   15  O   UNL     1      25.165  70.031  26.703  1.00  0.00    -0.348 OA
BRANCH  15  16
HETATM   16  C   UNL     1      24.254  69.590  25.669  1.00  0.00     0.297 C 
HETATM   17  C   UNL     1      23.171  70.654  25.315  1.00  0.00     0.303 C 
HETATM   18  C   UNL     1      22.041  70.086  24.385  1.00  0.00     0.188 C 
HETATM   19  N   UNL     1      22.640  71.292  26.540  1.00  0.00     0.090 N 
HETATM   20  C   UNL     1      22.370  68.631  23.946  1.00  0.00     0.196 C 
HETATM   21  O   UNL     1      20.754  70.193  25.008  1.00  0.00    -0.391 OA
HETATM   22  O   UNL     1      21.635  68.076  22.816  1.00  0.00    -0.348 OA
HETATM   23  C   UNL     1      22.685  67.823  25.188  1.00  0.00     0.149 C 
HETATM   24  C   UNL     1      20.341  67.423  22.874  1.00  0.00     0.296 C 
HETATM   25  O   UNL     1      20.399  66.162  23.575  1.00  0.00    -0.351 OA
HETATM   26  C   UNL     1      19.133  68.328  23.246  1.00  0.00     0.301 C 
HETATM   27  C   UNL     1      19.145  65.760  24.171  1.00  0.00     0.155 C 
HETATM   28  C   UNL     1      17.981  66.114  23.294  1.00  0.00     0.057 C 
HETATM   29  C   UNL     1      19.170  64.242  24.447  1.00  0.00     0.200 C 
HETATM   30  C   UNL     1      17.808  67.569  22.968  1.00  0.00     0.163 C 
HETATM   31  O   UNL     1      17.386  67.699  21.602  1.00  0.00    -0.393 OA
HETATM   32  H   UNL     1      18.091  67.284  21.061  1.00  0.00     0.210 HD
HETATM   33  O   UNL     1      20.248  63.949  25.348  1.00  0.00    -0.378 OA
HETATM   34  C   UNL     1      20.215  62.550  25.669  1.00  0.00     0.277 C 
HETATM   35  C   UNL     1      21.346  62.164  26.588  1.00  0.00     0.164 C 
HETATM   36  O   UNL     1      21.405  61.006  26.997  1.00  0.00    -0.648 OA
HETATM   37  O   UNL     1      22.313  63.032  26.973  1.00  0.00    -0.775 OA
HETATM   38  H   UNL     1      22.331  63.920  26.667  1.00  0.00     0.167 HD
HETATM   39  N   UNL     1      19.131  69.575  22.451  1.00  0.00     0.090 N 
HETATM   40  H   UNL     1      18.405  70.178  22.841  1.00  0.00     0.313 HD
HETATM   41  H   UNL     1      20.019  70.053  22.590  1.00  0.00     0.313 HD
HETATM   42  O   UNL     1      23.663  68.358  25.957  1.00  0.00    -0.340 OA
HETATM   43  C   UNL     1      21.663  67.024  25.951  1.00  0.00     0.212 C 
HETATM   44  O   UNL     1      21.928  67.047  27.363  1.00  0.00    -0.378 OA
HETATM   45  C   UNL     1      20.861  66.361  28.032  1.00  0.00     0.277 C 
HETATM   46  C   UNL     1      21.147  66.331  29.509  1.00  0.00     0.164 C 
HETATM   47  O   UNL     1      21.250  65.255  30.095  1.00  0.00    -0.648 OA
HETATM   48  O   UNL     1      21.273  67.483  30.205  1.00  0.00    -0.775 OA
HETATM   49  H   UNL     1      21.192  68.314  29.773  1.00  0.00     0.167 HD
HETATM   50  H   UNL     1      20.778  69.610  25.792  1.00  0.00     0.210 HD
HETATM   51  H   UNL     1      22.149  70.588  27.094  1.00  0.00     0.313 HD
HETATM   52  H   UNL     1      21.957  72.000  26.260  1.00  0.00     0.313 HD
ENDBRANCH  15  16
ENDBRANCH   1  15
BRANCH  13  53
HETATM   53  O   UNL     1      29.548  69.183  28.362  1.00  0.00    -0.348 OA
BRANCH  53  54
HETATM   54  C   UNL     1      30.043  70.195  29.260  1.00  0.00     0.186 C 
HETATM   55  C   UNL     1      30.763  71.233  28.365  1.00  0.00     0.187 C 
HETATM   56  O   UNL     1      30.867  72.527  28.980  1.00  0.00    -0.391 OA
HETATM   57  C   UNL     1      32.118  70.675  27.864  1.00  0.00     0.303 C 
HETATM   58  H   UNL     1      31.555  72.468  29.666  1.00  0.00     0.210 HD
HETATM   59  N   UNL     1      32.870  71.731  27.161  1.00  0.00     0.090 N 
HETATM   60  C   UNL     1      32.975  70.043  28.990  1.00  0.00     0.296 C 
HETATM   61  H   UNL     1      33.671  71.279  26.713  1.00  0.00     0.313 HD
HETATM   62  H   UNL     1      32.272  72.077  26.408  1.00  0.00     0.313 HD
HETATM   63  O   UNL     1      32.203  69.037  29.682  1.00  0.00    -0.349 OA
HETATM   64  C   UNL     1      30.982  69.509  30.292  1.00  0.00     0.180 C 
HETATM   65  C   UNL     1      31.243  70.343  31.572  1.00  0.00     0.203 C 
HETATM   66  O   UNL     1      30.041  70.443  32.349  1.00  0.00    -0.378 OA
HETATM   67  C   UNL     1      30.268  71.298  33.481  1.00  0.00     0.277 C 
HETATM   68  C   UNL     1      30.367  72.739  33.054  1.00  0.00     0.164 C 
HETATM   69  O   UNL     1      31.377  73.390  33.314  1.00  0.00    -0.648 OA
HETATM   70  O   UNL     1      29.368  73.315  32.349  1.00  0.00    -0.775 OA
HETATM   71  H   UNL     1      28.604  72.820  32.112  1.00  0.00     0.167 HD
BRANCH  60  72
HETATM   72  O   UNL     1      33.524  71.042  29.878  1.00  0.00    -0.348 OA
HETATM   73  C   UNL     1      34.954  70.991  30.129  1.00  0.00     0.186 C 
HETATM   74  C   UNL     1      35.796  71.753  29.071  1.00  0.00     0.186 C 
HETATM   75  C   UNL     1      35.554  69.574  30.389  1.00  0.00     0.178 C 
HETATM   76  O   UNL     1      35.203  73.008  28.707  1.00  0.00    -0.391 OA
HETATM   77  C   UNL     1      36.094  70.878  27.831  1.00  0.00     0.289 C 
HETATM   78  H   UNL     1      34.379  72.788  28.227  1.00  0.00     0.210 HD
HETATM   79  N   UNL     1      37.230  71.450  27.085  1.00  0.00     0.088 N 
HETATM   80  C   UNL     1      36.455  69.439  28.269  1.00  0.00     0.167 C 
HETATM   81  H   UNL     1      36.933  72.363  26.733  1.00  0.00     0.313 HD
HETATM   82  H   UNL     1      37.381  70.857  26.265  1.00  0.00     0.313 HD
HETATM   83  O   UNL     1      36.782  69.371  29.666  1.00  0.00    -0.361 OA
HETATM   84  C   UNL     1      35.837  69.388  31.899  1.00  0.00     0.203 C 
HETATM   85  O   UNL     1      36.116  68.008  32.192  1.00  0.00    -0.378 OA
HETATM   86  C   UNL     1      34.878  67.314  32.430  1.00  0.00     0.277 C 
HETATM   87  C   UNL     1      35.145  65.838  32.528  1.00  0.00     0.164 C 
HETATM   88  O   UNL     1      35.900  65.404  33.395  1.00  0.00    -0.648 OA
HETATM   89  O   UNL     1      34.547  64.975  31.675  1.00  0.00    -0.775 OA
HETATM   90  H   UNL     1      33.958  65.288  31.012  1.00  0.00     0.167 HD
ENDBRANCH  60  72
ENDBRANCH  53  54
ENDBRANCH  13  53
TORSDOF 40
ENDMDL
MODEL 4
REMARK VINA RESULT:     -11.4      3.092     13.198
REMARK  5 active torsions:
REMARK  status: ('A' for Active; 'I' for Inactive)
REMARK    1  A    between atoms: C_2  and  O_55 
REMARK       I    between atoms: C_3  and  O_22 
REMARK       I    between atoms: N_4  and  C_10 
REMARK       I    between atoms: O_5  and  C_11 
REMARK       I    between atoms: C_7  and  C_15 
REMARK       I    between atoms: C_9  and  O_22 
REMARK       I    between atoms: C_15  and  O_16 
REMARK       I    between atoms: O_16  and  C_17 
REMARK       I    between atoms: C_17  and  C_18 
REMARK       I    between atoms: C_18  and  O_20 
REMARK       I    between atoms: C_23  and  O_24 
REMARK       I    between atoms: C_26  and  N_27 
REMARK    2  A    between atoms: C_30  and  O_40 
REMARK       I    between atoms: C_32  and  C_33 
REMARK       I    between atoms: C_33  and  O_34 
REMARK       I    between atoms: O_34  and  C_35 
REMARK       I    between atoms: C_35  and  C_36 
REMARK       I    between atoms: C_36  and  O_38 
REMARK    3  A    between atoms: O_40  and  C_41 
REMARK       I    between atoms: C_42  and  C_43 
REMARK       I    between atoms: C_43  and  O_44 
REMARK       I    between atoms: C_46  and  O_47 
REMARK       I    between atoms: C_49  and  N_50 
REMARK    4  A    between atoms: C_53  and  O_55 
REMARK       I    between atoms: C_56  and  O_57 
REMARK       I    between atoms: C_59  and  N_60 
REMARK    5  A    between atoms: C_63  and  O_64 
REMARK       I    between atoms: O_64  and  C_73 
REMARK       I    between atoms: C_66  and  C_67 
REMARK       I    between atoms: C_67  and  O_68 
REMARK       I    between atoms: O_68  and  C_69 
REMARK       I    between atoms: C_69  and  C_70 
REMARK       I    between atoms: C_70  and  O_71 
REMARK       I    between atoms: C_74  and  O_75 
REMARK       I    between atoms: C_77  and  N_78 
REMARK       I    between atoms: C_83  and  C_84 
REMARK       I    between atoms: C_84  and  O_85 
REMARK       I    between atoms: O_85  and  C_86 
REMARK       I    between atoms: C_86  and  C_87 
REMARK       I    between atoms: C_87  and  O_89 
ROOT
HETATM    1  C   UNL     1      18.505  68.088  22.519  1.00  0.00     0.186 C 
HETATM    2  C   UNL     1      18.438  69.445  23.263  1.00  0.00     0.179 C 
HETATM    3  C   UNL     1      16.980  69.890  23.504  1.00  0.00     0.198 C 
HETATM    4  O   UNL     1      16.954  71.179  24.128  1.00  0.00    -0.398 OA
HETATM    5  H   UNL     1      16.001  71.389  24.225  1.00  0.00     0.209 HD
HETATM    6  C   UNL     1      19.986  67.816  22.175  1.00  0.00     0.187 C 
HETATM    7  O   UNL     1      20.453  68.732  21.176  1.00  0.00    -0.391 OA
HETATM    8  H   UNL     1      19.892  68.564  20.389  1.00  0.00     0.210 HD
HETATM    9  C   UNL     1      20.856  67.872  23.454  1.00  0.00     0.303 C 
HETATM   10  N   UNL     1      22.286  67.924  23.090  1.00  0.00     0.090 N 
HETATM   11  H   UNL     1      22.823  67.827  23.955  1.00  0.00     0.313 HD
HETATM   12  H   UNL     1      22.486  67.093  22.528  1.00  0.00     0.313 HD
HETATM   13  C   UNL     1      20.503  69.014  24.452  1.00  0.00     0.296 C 
HETATM   14  O   UNL     1      19.108  69.377  24.534  1.00  0.00    -0.349 OA
ENDROOT
BRANCH   1  15
HETATM   15  O   UNL     1      17.997  67.018  23.350  1.00  0.00    -0.348 OA
BRANCH  15  16
HETATM   16  C   UNL     1      17.471  65.882  22.624  1.00  0.00     0.297 C 
HETATM   17  C   UNL     1      18.032  64.518  23.134  1.00  0.00     0.303 C 
HETATM   18  C   UNL     1      17.661  63.319  22.192  1.00  0.00     0.188 C 
HETATM   19  N   UNL     1      19.484  64.614  23.399  1.00  0.00     0.090 N 
HETATM   20  C   UNL     1      16.709  63.785  21.055  1.00  0.00     0.196 C 
HETATM   21  O   UNL     1      18.839  62.671  21.690  1.00  0.00    -0.391 OA
HETATM   22  O   UNL     1      15.984  62.763  20.309  1.00  0.00    -0.348 OA
HETATM   23  C   UNL     1      17.330  64.994  20.386  1.00  0.00     0.149 C 
HETATM   24  C   UNL     1      16.478  62.032  19.158  1.00  0.00     0.296 C 
HETATM   25  O   UNL     1      16.648  62.884  18.005  1.00  0.00    -0.351 OA
HETATM   26  C   UNL     1      17.646  61.043  19.424  1.00  0.00     0.301 C 
HETATM   27  C   UNL     1      17.636  62.411  17.062  1.00  0.00     0.155 C 
HETATM   28  C   UNL     1      17.599  60.918  16.931  1.00  0.00     0.057 C 
HETATM   29  C   UNL     1      17.400  63.078  15.690  1.00  0.00     0.200 C 
HETATM   30  C   UNL     1      17.849  60.130  18.185  1.00  0.00     0.163 C 
HETATM   31  O   UNL     1      16.978  58.988  18.205  1.00  0.00    -0.393 OA
HETATM   32  H   UNL     1      16.066  59.344  18.173  1.00  0.00     0.210 HD
HETATM   33  O   UNL     1      17.517  64.501  15.838  1.00  0.00    -0.378 OA
HETATM   34  C   UNL     1      17.381  65.111  14.545  1.00  0.00     0.277 C 
HETATM   35  C   UNL     1      17.460  66.615  14.630  1.00  0.00     0.164 C 
HETATM   36  O   UNL     1      17.422  67.268  13.589  1.00  0.00    -0.648 OA
HETATM   37  O   UNL     1      17.554  67.284  15.805  1.00  0.00    -0.775 OA
HETATM   38  H   UNL     1      17.558  66.835  16.630  1.00  0.00     0.167 HD
HETATM   39  N   UNL     1      17.367  60.183  20.594  1.00  0.00     0.090 N 
HETATM   40  H   UNL     1      18.223  59.665  20.797  1.00  0.00     0.313 HD
HETATM   41  H   UNL     1      17.183  60.777  21.401  1.00  0.00     0.313 HD
HETATM   42  O   UNL     1      17.634  65.999  21.243  1.00  0.00    -0.340 OA
HETATM   43  C   UNL     1      18.221  64.919  19.177  1.00  0.00     0.212 C 
HETATM   44  O   UNL     1      19.252  65.919  19.222  1.00  0.00    -0.378 OA
HETATM   45  C   UNL     1      20.123  65.720  18.100  1.00  0.00     0.277 C 
HETATM   46  C   UNL     1      21.180  66.790  18.103  1.00  0.00     0.164 C 
HETATM   47  O   UNL     1      21.289  67.551  17.144  1.00  0.00    -0.648 OA
HETATM   48  O   UNL     1      22.028  66.912  19.150  1.00  0.00    -0.775 OA
HETATM   49  H   UNL     1      21.961  66.335  19.889  1.00  0.00     0.167 HD
HETATM   50  H   UNL     1      19.295  63.326  21.127  1.00  0.00     0.210 HD
HETATM   51  H   UNL     1      19.971  64.788  22.519  1.00  0.00     0.313 HD
HETATM   52  H   UNL     1      19.802  63.710  23.758  1.00  0.00     0.313 HD
ENDBRANCH  15  16
ENDBRANCH   1  15
BRANCH  13  53
HETATM   53  O   UNL     1      21.432  70.124  24.463  1.00  0.00    -0.348 OA
BRANCH  53  54
HETATM   54  C   UNL     1      21.993  70.518  25.730  1.00  0.00     0.186 C 
HETATM   55  C   UNL     1      23.382  71.122  25.403  1.00  0.00     0.187 C 
HETATM   56  O   UNL     1      23.861  72.011  26.424  1.00  0.00    -0.391 OA
HETATM   57  C   UNL     1      24.389  70.005  25.030  1.00  0.00     0.303 C 
HETATM   58  H   UNL     1      24.147  71.462  27.175  1.00  0.00     0.210 HD
HETATM   59  N   UNL     1      25.743  70.572  24.892  1.00  0.00     0.090 N 
HETATM   60  C   UNL     1      24.385  68.819  26.029  1.00  0.00     0.296 C 
HETATM   61  H   UNL     1      26.334  69.840  24.492  1.00  0.00     0.313 HD
HETATM   62  H   UNL     1      25.688  71.317  24.194  1.00  0.00     0.313 HD
HETATM   63  O   UNL     1      23.042  68.306  26.170  1.00  0.00    -0.349 OA
HETATM   64  C   UNL     1      22.064  69.259  26.640  1.00  0.00     0.180 C 
HETATM   65  C   UNL     1      22.220  69.570  28.150  1.00  0.00     0.203 C 
HETATM   66  O   UNL     1      21.022  70.181  28.653  1.00  0.00    -0.378 OA
HETATM   67  C   UNL     1      21.212  70.554  30.028  1.00  0.00     0.277 C 
HETATM   68  C   UNL     1      22.123  71.748  30.139  1.00  0.00     0.164 C 
HETATM   69  O   UNL     1      23.156  71.674  30.803  1.00  0.00    -0.648 OA
HETATM   70  O   UNL     1      21.837  72.893  29.480  1.00  0.00    -0.775 OA
HETATM   71  H   UNL     1      21.070  72.953  28.940  1.00  0.00     0.167 HD
BRANCH  60  72
HETATM   72  O   UNL     1      24.989  69.174  27.292  1.00  0.00    -0.348 OA
HETATM   73  C   UNL     1      26.026  68.294  27.802  1.00  0.00     0.186 C 
HETATM   74  C   UNL     1      27.442  68.626  27.258  1.00  0.00     0.186 C 
HETATM   75  C   UNL     1      25.742  66.764  27.690  1.00  0.00     0.178 C 
HETATM   76  O   UNL     1      27.691  70.038  27.220  1.00  0.00    -0.391 OA
HETATM   77  C   UNL     1      27.703  67.960  25.886  1.00  0.00     0.289 C 
HETATM   78  H   UNL     1      27.094  70.400  26.535  1.00  0.00     0.210 HD
HETATM   79  N   UNL     1      29.155  67.921  25.626  1.00  0.00     0.088 N 
HETATM   80  C   UNL     1      27.153  66.514  25.882  1.00  0.00     0.167 C 
HETATM   81  H   UNL     1      29.476  68.888  25.547  1.00  0.00     0.313 HD
HETATM   82  H   UNL     1      29.284  67.495  24.705  1.00  0.00     0.313 HD
HETATM   83  O   UNL     1      26.889  66.038  27.211  1.00  0.00    -0.361 OA
HETATM   84  C   UNL     1      25.346  66.197  29.075  1.00  0.00     0.203 C 
HETATM   85  O   UNL     1      24.810  64.870  28.941  1.00  0.00    -0.378 OA
HETATM   86  C   UNL     1      23.399  64.954  28.671  1.00  0.00     0.277 C 
HETATM   87  C   UNL     1      22.875  63.589  28.322  1.00  0.00     0.164 C 
HETATM   88  O   UNL     1      22.969  62.667  29.131  1.00  0.00    -0.648 OA
HETATM   89  O   UNL     1      22.285  63.366  27.126  1.00  0.00    -0.775 OA
HETATM   90  H   UNL     1      22.195  64.061  26.499  1.00  0.00     0.167 HD
ENDBRANCH  60  72
ENDBRANCH  53  54
ENDBRANCH  13  53
TORSDOF 40
ENDMDL
MODEL 5
REMARK VINA RESULT:     -10.9      2.852     13.327
REMARK  5 active torsions:
REMARK  status: ('A' for Active; 'I' for Inactive)
REMARK    1  A    between atoms: C_2  and  O_55 
REMARK       I    between atoms: C_3  and  O_22 
REMARK       I    between atoms: N_4  and  C_10 
REMARK       I    between atoms: O_5  and  C_11 
REMARK       I    between atoms: C_7  and  C_15 
REMARK       I    between atoms: C_9  and  O_22 
REMARK       I    between atoms: C_15  and  O_16 
REMARK       I    between atoms: O_16  and  C_17 
REMARK       I    between atoms: C_17  and  C_18 
REMARK       I    between atoms: C_18  and  O_20 
REMARK       I    between atoms: C_23  and  O_24 
REMARK       I    between atoms: C_26  and  N_27 
REMARK    2  A    between atoms: C_30  and  O_40 
REMARK       I    between atoms: C_32  and  C_33 
REMARK       I    between atoms: C_33  and  O_34 
REMARK       I    between atoms: O_34  and  C_35 
REMARK       I    between atoms: C_35  and  C_36 
REMARK       I    between atoms: C_36  and  O_38 
REMARK    3  A    between atoms: O_40  and  C_41 
REMARK       I    between atoms: C_42  and  C_43 
REMARK       I    between atoms: C_43  and  O_44 
REMARK       I    between atoms: C_46  and  O_47 
REMARK       I    between atoms: C_49  and  N_50 
REMARK    4  A    between atoms: C_53  and  O_55 
REMARK       I    between atoms: C_56  and  O_57 
REMARK       I    between atoms: C_59  and  N_60 
REMARK    5  A    between atoms: C_63  and  O_64 
REMARK       I    between atoms: O_64  and  C_73 
REMARK       I    between atoms: C_66  and  C_67 
REMARK       I    between atoms: C_67  and  O_68 
REMARK       I    between atoms: O_68  and  C_69 
REMARK       I    between atoms: C_69  and  C_70 
REMARK       I    between atoms: C_70  and  O_71 
REMARK       I    between atoms: C_74  and  O_75 
REMARK       I    between atoms: C_77  and  N_78 
REMARK       I    between atoms: C_83  and  C_84 
REMARK       I    between atoms: C_84  and  O_85 
REMARK       I    between atoms: O_85  and  C_86 
REMARK       I    between atoms: C_86  and  C_87 
REMARK       I    between atoms: C_87  and  O_89 
ROOT
HETATM    1  C   UNL     1      20.779  68.483  23.684  1.00  0.00     0.186 C 
HETATM    2  C   UNL     1      20.413  67.668  24.949  1.00  0.00     0.179 C 
HETATM    3  C   UNL     1      19.839  66.282  24.587  1.00  0.00     0.198 C 
HETATM    4  O   UNL     1      19.446  65.585  25.774  1.00  0.00    -0.398 OA
HETATM    5  H   UNL     1      19.080  64.733  25.454  1.00  0.00     0.209 HD
HETATM    6  C   UNL     1      21.177  69.904  24.141  1.00  0.00     0.187 C 
HETATM    7  O   UNL     1      20.037  70.615  24.640  1.00  0.00    -0.391 OA
HETATM    8  H   UNL     1      19.415  70.671  23.883  1.00  0.00     0.210 HD
HETATM    9  C   UNL     1      22.313  69.834  25.191  1.00  0.00     0.303 C 
HETATM   10  N   UNL     1      22.473  71.147  25.848  1.00  0.00     0.090 N 
HETATM   11  H   UNL     1      23.311  71.092  26.432  1.00  0.00     0.313 HD
HETATM   12  H   UNL     1      22.672  71.831  25.114  1.00  0.00     0.313 HD
HETATM   13  C   UNL     1      22.172  68.703  26.252  1.00  0.00     0.296 C 
HETATM   14  O   UNL     1      21.559  67.478  25.797  1.00  0.00    -0.349 OA
ENDROOT
BRANCH   1  15
HETATM   15  O   UNL     1      21.887  67.873  22.980  1.00  0.00    -0.348 OA
BRANCH  15  16
HETATM   16  C   UNL     1      21.559  67.340  21.675  1.00  0.00     0.297 C 
HETATM   17  C   UNL     1      22.071  68.234  20.504  1.00  0.00     0.303 C 
HETATM   18  C   UNL     1      21.502  67.793  19.109  1.00  0.00     0.188 C 
HETATM   19  N   UNL     1      21.837  69.665  20.794  1.00  0.00     0.090 N 
HETATM   20  C   UNL     1      20.672  66.485  19.242  1.00  0.00     0.196 C 
HETATM   21  O   UNL     1      20.758  68.854  18.494  1.00  0.00    -0.391 OA
HETATM   22  O   UNL     1      20.370  65.741  18.025  1.00  0.00    -0.348 OA
HETATM   23  C   UNL     1      19.656  66.681  20.348  1.00  0.00     0.149 C 
HETATM   24  C   UNL     1      19.253  65.978  17.131  1.00  0.00     0.296 C 
HETATM   25  O   UNL     1      17.987  65.662  17.748  1.00  0.00    -0.351 OA
HETATM   26  C   UNL     1      19.283  67.312  16.336  1.00  0.00     0.301 C 
HETATM   27  C   UNL     1      16.864  66.386  17.196  1.00  0.00     0.155 C 
HETATM   28  C   UNL     1      16.991  66.546  15.710  1.00  0.00     0.057 C 
HETATM   29  C   UNL     1      15.554  65.650  17.548  1.00  0.00     0.200 C 
HETATM   30  C   UNL     1      18.207  67.278  15.218  1.00  0.00     0.163 C 
HETATM   31  O   UNL     1      18.687  66.643  14.023  1.00  0.00    -0.393 OA
HETATM   32  H   UNL     1      18.894  65.718  14.273  1.00  0.00     0.210 HD
HETATM   33  O   UNL     1      15.428  65.581  18.976  1.00  0.00    -0.378 OA
HETATM   34  C   UNL     1      14.168  64.973  19.299  1.00  0.00     0.277 C 
HETATM   35  C   UNL     1      13.983  64.837  20.790  1.00  0.00     0.164 C 
HETATM   36  O   UNL     1      12.919  64.388  21.214  1.00  0.00    -0.648 OA
HETATM   37  O   UNL     1      14.943  65.170  21.686  1.00  0.00    -0.775 OA
HETATM   38  H   UNL     1      15.784  65.490  21.414  1.00  0.00     0.167 HD
HETATM   39  N   UNL     1      20.602  67.532  15.704  1.00  0.00     0.090 N 
HETATM   40  H   UNL     1      20.599  68.480  15.324  1.00  0.00     0.313 HD
HETATM   41  H   UNL     1      21.320  67.506  16.426  1.00  0.00     0.313 HD
HETATM   42  O   UNL     1      20.198  67.064  21.529  1.00  0.00    -0.340 OA
HETATM   43  C   UNL     1      18.252  67.172  20.121  1.00  0.00     0.212 C 
HETATM   44  O   UNL     1      17.805  67.999  21.208  1.00  0.00    -0.378 OA
HETATM   45  C   UNL     1      16.509  68.517  20.875  1.00  0.00     0.277 C 
HETATM   46  C   UNL     1      16.002  69.345  22.024  1.00  0.00     0.164 C 
HETATM   47  O   UNL     1      14.950  69.044  22.585  1.00  0.00    -0.648 OA
HETATM   48  O   UNL     1      16.687  70.436  22.436  1.00  0.00    -0.775 OA
HETATM   49  H   UNL     1      17.490  70.683  22.015  1.00  0.00     0.167 HD
HETATM   50  H   UNL     1      19.981  69.013  19.065  1.00  0.00     0.210 HD
HETATM   51  H   UNL     1      20.830  69.835  20.836  1.00  0.00     0.313 HD
HETATM   52  H   UNL     1      22.213  70.213  20.016  1.00  0.00     0.313 HD
ENDBRANCH  15  16
ENDBRANCH   1  15
BRANCH  13  53
HETATM   53  O   UNL     1      21.762  69.148  27.567  1.00  0.00    -0.348 OA
BRANCH  53  54
HETATM   54  C   UNL     1      22.567  68.749  28.693  1.00  0.00     0.186 C 
HETATM   55  C   UNL     1      22.188  69.714  29.843  1.00  0.00     0.187 C 
HETATM   56  O   UNL     1      22.480  69.180  31.143  1.00  0.00    -0.391 OA
HETATM   57  C   UNL     1      22.795  71.118  29.599  1.00  0.00     0.303 C 
HETATM   58  H   UNL     1      23.444  69.226  31.266  1.00  0.00     0.210 HD
HETATM   59  N   UNL     1      22.575  71.975  30.779  1.00  0.00     0.090 N 
HETATM   60  C   UNL     1      24.297  71.079  29.217  1.00  0.00     0.296 C 
HETATM   61  H   UNL     1      22.843  72.925  30.512  1.00  0.00     0.313 HD
HETATM   62  H   UNL     1      21.568  71.995  30.953  1.00  0.00     0.313 HD
HETATM   63  O   UNL     1      24.487  70.207  28.081  1.00  0.00    -0.349 OA
HETATM   64  C   UNL     1      24.062  68.840  28.275  1.00  0.00     0.180 C 
HETATM   65  C   UNL     1      25.031  68.043  29.185  1.00  0.00     0.203 C 
HETATM   66  O   UNL     1      24.808  66.634  29.027  1.00  0.00    -0.378 OA
HETATM   67  C   UNL     1      25.641  65.908  29.946  1.00  0.00     0.277 C 
HETATM   68  C   UNL     1      25.132  66.047  31.356  1.00  0.00     0.164 C 
HETATM   69  O   UNL     1      25.864  66.506  32.232  1.00  0.00    -0.648 OA
HETATM   70  O   UNL     1      23.860  65.710  31.663  1.00  0.00    -0.775 OA
HETATM   71  H   UNL     1      23.277  65.391  30.998  1.00  0.00     0.167 HD
BRANCH  60  72
HETATM   72  O   UNL     1      25.132  70.729  30.343  1.00  0.00    -0.348 OA
HETATM   73  C   UNL     1      26.446  71.343  30.410  1.00  0.00     0.186 C 
HETATM   74  C   UNL     1      26.444  72.735  31.098  1.00  0.00     0.186 C 
HETATM   75  C   UNL     1      27.247  71.397  29.072  1.00  0.00     0.178 C 
HETATM   76  O   UNL     1      25.608  72.763  32.264  1.00  0.00    -0.391 OA
HETATM   77  C   UNL     1      26.084  73.868  30.107  1.00  0.00     0.289 C 
HETATM   78  H   UNL     1      24.690  72.667  31.940  1.00  0.00     0.210 HD
HETATM   79  N   UNL     1      26.521  75.164  30.661  1.00  0.00     0.088 N 
HETATM   80  C   UNL     1      26.795  73.636  28.753  1.00  0.00     0.167 C 
HETATM   81  H   UNL     1      25.973  75.332  31.508  1.00  0.00     0.313 HD
HETATM   82  H   UNL     1      26.247  75.885  29.989  1.00  0.00     0.313 HD
HETATM   83  O   UNL     1      27.862  72.681  28.865  1.00  0.00    -0.361 OA
HETATM   84  C   UNL     1      28.357  70.317  29.076  1.00  0.00     0.203 C 
HETATM   85  O   UNL     1      28.911  70.160  27.759  1.00  0.00    -0.378 OA
HETATM   86  C   UNL     1      28.117  69.213  27.021  1.00  0.00     0.277 C 
HETATM   87  C   UNL     1      28.561  69.202  25.585  1.00  0.00     0.164 C 
HETATM   88  O   UNL     1      29.720  68.905  25.300  1.00  0.00    -0.648 OA
HETATM   89  O   UNL     1      27.691  69.504  24.596  1.00  0.00    -0.775 OA
HETATM   90  H   UNL     1      26.798  69.724  24.793  1.00  0.00     0.167 HD
ENDBRANCH  60  72
ENDBRANCH  53  54
ENDBRANCH  13  53
TORSDOF 40
ENDMDL
MODEL 6
REMARK VINA RESULT:     -10.8      8.728     20.033
REMARK  5 active torsions:
REMARK  status: ('A' for Active; 'I' for Inactive)
REMARK    1  A    between atoms: C_2  and  O_55 
REMARK       I    between atoms: C_3  and  O_22 
REMARK       I    between atoms: N_4  and  C_10 
REMARK       I    between atoms: O_5  and  C_11 
REMARK       I    between atoms: C_7  and  C_15 
REMARK       I    between atoms: C_9  and  O_22 
REMARK       I    between atoms: C_15  and  O_16 
REMARK       I    between atoms: O_16  and  C_17 
REMARK       I    between atoms: C_17  and  C_18 
REMARK       I    between atoms: C_18  and  O_20 
REMARK       I    between atoms: C_23  and  O_24 
REMARK       I    between atoms: C_26  and  N_27 
REMARK    2  A    between atoms: C_30  and  O_40 
REMARK       I    between atoms: C_32  and  C_33 
REMARK       I    between atoms: C_33  and  O_34 
REMARK       I    between atoms: O_34  and  C_35 
REMARK       I    between atoms: C_35  and  C_36 
REMARK       I    between atoms: C_36  and  O_38 
REMARK    3  A    between atoms: O_40  and  C_41 
REMARK       I    between atoms: C_42  and  C_43 
REMARK       I    between atoms: C_43  and  O_44 
REMARK       I    between atoms: C_46  and  O_47 
REMARK       I    between atoms: C_49  and  N_50 
REMARK    4  A    between atoms: C_53  and  O_55 
REMARK       I    between atoms: C_56  and  O_57 
REMARK       I    between atoms: C_59  and  N_60 
REMARK    5  A    between atoms: C_63  and  O_64 
REMARK       I    between atoms: O_64  and  C_73 
REMARK       I    between atoms: C_66  and  C_67 
REMARK       I    between atoms: C_67  and  O_68 
REMARK       I    between atoms: O_68  and  C_69 
REMARK       I    between atoms: C_69  and  C_70 
REMARK       I    between atoms: C_70  and  O_71 
REMARK       I    between atoms: C_74  and  O_75 
REMARK       I    between atoms: C_77  and  N_78 
REMARK       I    between atoms: C_83  and  C_84 
REMARK       I    between atoms: C_84  and  O_85 
REMARK       I    between atoms: O_85  and  C_86 
REMARK       I    between atoms: C_86  and  C_87 
REMARK       I    between atoms: C_87  and  O_89 
ROOT
HETATM    1  C   UNL     1      35.077  69.006  28.199  1.00  0.00     0.186 C 
HETATM    2  C   UNL     1      36.350  69.887  28.233  1.00  0.00     0.179 C 
HETATM    3  C   UNL     1      36.244  71.077  27.255  1.00  0.00     0.198 C 
HETATM    4  O   UNL     1      37.463  71.828  27.258  1.00  0.00    -0.398 OA
HETATM    5  H   UNL     1      37.316  72.545  26.604  1.00  0.00     0.209 HD
HETATM    6  C   UNL     1      35.347  67.760  29.071  1.00  0.00     0.187 C 
HETATM    7  O   UNL     1      36.321  66.908  28.453  1.00  0.00    -0.391 OA
HETATM    8  H   UNL     1      35.921  66.637  27.600  1.00  0.00     0.210 HD
HETATM    9  C   UNL     1      35.780  68.182  30.497  1.00  0.00     0.303 C 
HETATM   10  N   UNL     1      36.332  67.021  31.222  1.00  0.00     0.090 N 
HETATM   11  H   UNL     1      36.480  67.311  32.191  1.00  0.00     0.313 HD
HETATM   12  H   UNL     1      35.605  66.301  31.240  1.00  0.00     0.313 HD
HETATM   13  C   UNL     1      36.762  69.389  30.566  1.00  0.00     0.296 C 
HETATM   14  O   UNL     1      36.594  70.403  29.552  1.00  0.00    -0.349 OA
ENDROOT
BRANCH   1  15
HETATM   15  O   UNL     1      33.937  69.726  28.726  1.00  0.00    -0.348 OA
BRANCH  15  16
HETATM   16  C   UNL     1      32.688  69.472  28.040  1.00  0.00     0.297 C 
HETATM   17  C   UNL     1      31.945  70.778  27.621  1.00  0.00     0.303 C 
HETATM   18  C   UNL     1      30.486  70.510  27.109  1.00  0.00     0.188 C 
HETATM   19  N   UNL     1      31.999  71.784  28.704  1.00  0.00     0.090 N 
HETATM   20  C   UNL     1      30.204  68.983  27.027  1.00  0.00     0.196 C 
HETATM   21  O   UNL     1      29.520  71.203  27.911  1.00  0.00    -0.391 OA
HETATM   22  O   UNL     1      29.052  68.542  26.249  1.00  0.00    -0.348 OA
HETATM   23  C   UNL     1      30.571  68.363  28.359  1.00  0.00     0.149 C 
HETATM   24  C   UNL     1      27.685  68.443  26.723  1.00  0.00     0.296 C 
HETATM   25  O   UNL     1      27.529  67.406  27.715  1.00  0.00    -0.351 OA
HETATM   26  C   UNL     1      26.977  69.785  27.056  1.00  0.00     0.301 C 
HETATM   27  C   UNL     1      26.424  67.620  28.623  1.00  0.00     0.155 C 
HETATM   28  C   UNL     1      25.240  68.212  27.918  1.00  0.00     0.057 C 
HETATM   29  C   UNL     1      26.039  66.282  29.290  1.00  0.00     0.200 C 
HETATM   30  C   UNL     1      25.456  69.539  27.248  1.00  0.00     0.163 C 
HETATM   31  O   UNL     1      24.743  69.559  26.002  1.00  0.00    -0.393 OA
HETATM   32  H   UNL     1      25.105  68.818  25.471  1.00  0.00     0.210 HD
HETATM   33  O   UNL     1      27.171  65.782  30.017  1.00  0.00    -0.378 OA
HETATM   34  C   UNL     1      26.784  64.582  30.705  1.00  0.00     0.277 C 
HETATM   35  C   UNL     1      27.939  63.981  31.465  1.00  0.00     0.164 C 
HETATM   36  O   UNL     1      27.737  62.982  32.154  1.00  0.00    -0.648 OA
HETATM   37  O   UNL     1      29.198  64.480  31.412  1.00  0.00    -0.775 OA
HETATM   38  H   UNL     1      29.413  65.223  30.879  1.00  0.00     0.167 HD
HETATM   39  N   UNL     1      27.154  70.771  25.969  1.00  0.00     0.090 N 
HETATM   40  H   UNL     1      26.793  71.663  26.310  1.00  0.00     0.313 HD
HETATM   41  H   UNL     1      28.151  70.900  25.803  1.00  0.00     0.313 HD
HETATM   42  O   UNL     1      31.838  68.628  28.756  1.00  0.00    -0.340 OA
HETATM   43  C   UNL     1      29.596  68.160  29.488  1.00  0.00     0.212 C 
HETATM   44  O   UNL     1      30.228  68.346  30.765  1.00  0.00    -0.378 OA
HETATM   45  C   UNL     1      29.223  68.245  31.783  1.00  0.00     0.277 C 
HETATM   46  C   UNL     1      29.874  68.386  33.131  1.00  0.00     0.164 C 
HETATM   47  O   UNL     1      29.786  67.479  33.957  1.00  0.00    -0.648 OA
HETATM   48  O   UNL     1      30.544  69.516  33.453  1.00  0.00    -0.775 OA
HETATM   49  H   UNL     1      30.616  70.221  32.835  1.00  0.00     0.167 HD
HETATM   50  H   UNL     1      29.569  70.811  28.804  1.00  0.00     0.210 HD
HETATM   51  H   UNL     1      31.480  71.431  29.510  1.00  0.00     0.313 HD
HETATM   52  H   UNL     1      31.527  72.630  28.376  1.00  0.00     0.313 HD
ENDBRANCH  15  16
ENDBRANCH   1  15
BRANCH  13  53
HETATM   53  O   UNL     1      38.133  69.043  30.873  1.00  0.00    -0.348 OA
BRANCH  53  54
HETATM   54  C   UNL     1      39.156  69.466  29.951  1.00  0.00     0.186 C 
HETATM   55  C   UNL     1      39.630  68.179  29.231  1.00  0.00     0.187 C 
HETATM   56  O   UNL     1      40.246  68.441  27.961  1.00  0.00    -0.391 OA
HETATM   57  C   UNL     1      40.501  67.315  30.177  1.00  0.00     0.303 C 
HETATM   58  H   UNL     1      41.130  68.808  28.138  1.00  0.00     0.210 HD
HETATM   59  N   UNL     1      41.087  66.186  29.431  1.00  0.00     0.090 N 
HETATM   60  C   UNL     1      41.602  68.126  30.907  1.00  0.00     0.296 C 
HETATM   61  H   UNL     1      41.514  65.562  30.121  1.00  0.00     0.313 HD
HETATM   62  H   UNL     1      40.313  65.668  29.010  1.00  0.00     0.313 HD
HETATM   63  O   UNL     1      41.004  69.244  31.600  1.00  0.00    -0.349 OA
HETATM   64  C   UNL     1      40.278  70.171  30.763  1.00  0.00     0.180 C 
HETATM   65  C   UNL     1      41.219  71.062  29.914  1.00  0.00     0.203 C 
HETATM   66  O   UNL     1      40.504  72.206  29.424  1.00  0.00    -0.378 OA
HETATM   67  C   UNL     1      41.357  72.973  28.558  1.00  0.00     0.277 C 
HETATM   68  C   UNL     1      41.561  72.268  27.243  1.00  0.00     0.164 C 
HETATM   69  O   UNL     1      42.697  71.988  26.865  1.00  0.00    -0.648 OA
HETATM   70  O   UNL     1      40.500  71.903  26.489  1.00  0.00    -0.775 OA
HETATM   71  H   UNL     1      39.624  72.079  26.781  1.00  0.00     0.167 HD
BRANCH  60  72
HETATM   72  O   UNL     1      42.666  68.521  30.013  1.00  0.00    -0.348 OA
HETATM   73  C   UNL     1      44.025  68.430  30.518  1.00  0.00     0.186 C 
HETATM   74  C   UNL     1      44.661  67.026  30.336  1.00  0.00     0.186 C 
HETATM   75  C   UNL     1      44.250  68.948  31.974  1.00  0.00     0.178 C 
HETATM   76  O   UNL     1      44.361  66.457  29.053  1.00  0.00    -0.391 OA
HETATM   77  C   UNL     1      44.283  66.067  31.491  1.00  0.00     0.289 C 
HETATM   78  H   UNL     1      43.401  66.273  29.056  1.00  0.00     0.210 HD
HETATM   79  N   UNL     1      45.231  64.938  31.523  1.00  0.00     0.088 N 
HETATM   80  C   UNL     1      44.344  66.813  32.844  1.00  0.00     0.167 C 
HETATM   81  H   UNL     1      45.108  64.412  30.655  1.00  0.00     0.313 HD
HETATM   82  H   UNL     1      44.936  64.319  32.283  1.00  0.00     0.313 HD
HETATM   83  O   UNL     1      45.070  68.049  32.742  1.00  0.00    -0.361 OA
HETATM   84  C   UNL     1      44.940  70.333  31.941  1.00  0.00     0.203 C 
HETATM   85  O   UNL     1      44.897  70.947  33.240  1.00  0.00    -0.378 OA
HETATM   86  C   UNL     1      43.659  71.666  33.384  1.00  0.00     0.277 C 
HETATM   87  C   UNL     1      43.514  72.131  34.807  1.00  0.00     0.164 C 
HETATM   88  O   UNL     1      44.354  72.883  35.297  1.00  0.00    -0.648 OA
HETATM   89  O   UNL     1      42.456  71.739  35.552  1.00  0.00    -0.775 OA
HETATM   90  H   UNL     1      41.799  71.173  35.190  1.00  0.00     0.167 HD
ENDBRANCH  60  72
ENDBRANCH  53  54
ENDBRANCH  13  53
TORSDOF 40
ENDMDL
MODEL 7
REMARK VINA RESULT:     -10.8      2.646     14.090
REMARK  5 active torsions:
REMARK  status: ('A' for Active; 'I' for Inactive)
REMARK    1  A    between atoms: C_2  and  O_55 
REMARK       I    between atoms: C_3  and  O_22 
REMARK       I    between atoms: N_4  and  C_10 
REMARK       I    between atoms: O_5  and  C_11 
REMARK       I    between atoms: C_7  and  C_15 
REMARK       I    between atoms: C_9  and  O_22 
REMARK       I    between atoms: C_15  and  O_16 
REMARK       I    between atoms: O_16  and  C_17 
REMARK       I    between atoms: C_17  and  C_18 
REMARK       I    between atoms: C_18  and  O_20 
REMARK       I    between atoms: C_23  and  O_24 
REMARK       I    between atoms: C_26  and  N_27 
REMARK    2  A    between atoms: C_30  and  O_40 
REMARK       I    between atoms: C_32  and  C_33 
REMARK       I    between atoms: C_33  and  O_34 
REMARK       I    between atoms: O_34  and  C_35 
REMARK       I    between atoms: C_35  and  C_36 
REMARK       I    between atoms: C_36  and  O_38 
REMARK    3  A    between atoms: O_40  and  C_41 
REMARK       I    between atoms: C_42  and  C_43 
REMARK       I    between atoms: C_43  and  O_44 
REMARK       I    between atoms: C_46  and  O_47 
REMARK       I    between atoms: C_49  and  N_50 
REMARK    4  A    between atoms: C_53  and  O_55 
REMARK       I    between atoms: C_56  and  O_57 
REMARK       I    between atoms: C_59  and  N_60 
REMARK    5  A    between atoms: C_63  and  O_64 
REMARK       I    between atoms: O_64  and  C_73 
REMARK       I    between atoms: C_66  and  C_67 
REMARK       I    between atoms: C_67  and  O_68 
REMARK       I    between atoms: O_68  and  C_69 
REMARK       I    between atoms: C_69  and  C_70 
REMARK       I    between atoms: C_70  and  O_71 
REMARK       I    between atoms: C_74  and  O_75 
REMARK       I    between atoms: C_77  and  N_78 
REMARK       I    between atoms: C_83  and  C_84 
REMARK       I    between atoms: C_84  and  O_85 
REMARK       I    between atoms: O_85  and  C_86 
REMARK       I    between atoms: C_86  and  C_87 
REMARK       I    between atoms: C_87  and  O_89 
ROOT
HETATM    1  C   UNL     1      22.975  68.095  25.488  1.00  0.00     0.186 C 
HETATM    2  C   UNL     1      24.100  69.123  25.763  1.00  0.00     0.179 C 
HETATM    3  C   UNL     1      24.831  69.527  24.465  1.00  0.00     0.198 C 
HETATM    4  O   UNL     1      25.909  70.421  24.764  1.00  0.00    -0.398 OA
HETATM    5  H   UNL     1      26.325  70.610  23.896  1.00  0.00     0.209 HD
HETATM    6  C   UNL     1      22.424  67.627  26.853  1.00  0.00     0.187 C 
HETATM    7  O   UNL     1      23.395  66.834  27.549  1.00  0.00    -0.391 OA
HETATM    8  H   UNL     1      23.556  66.058  26.971  1.00  0.00     0.210 HD
HETATM    9  C   UNL     1      21.968  68.843  27.696  1.00  0.00     0.303 C 
HETATM   10  N   UNL     1      21.740  68.430  29.095  1.00  0.00     0.090 N 
HETATM   11  H   UNL     1      21.318  69.225  29.580  1.00  0.00     0.313 HD
HETATM   12  H   UNL     1      21.035  67.689  29.081  1.00  0.00     0.313 HD
HETATM   13  C   UNL     1      22.906  70.085  27.637  1.00  0.00     0.296 C 
HETATM   14  O   UNL     1      23.580  70.313  26.381  1.00  0.00    -0.349 OA
ENDROOT
BRANCH   1  15
HETATM   15  O   UNL     1      21.907  68.692  24.715  1.00  0.00    -0.348 OA
BRANCH  15  16
HETATM   16  C   UNL     1      21.933  68.382  23.301  1.00  0.00     0.297 C 
HETATM   17  C   UNL     1      21.592  69.609  22.400  1.00  0.00     0.303 C 
HETATM   18  C   UNL     1      21.373  69.216  20.896  1.00  0.00     0.188 C 
HETATM   19  N   UNL     1      20.460  70.377  22.964  1.00  0.00     0.090 N 
HETATM   20  C   UNL     1      21.688  67.710  20.669  1.00  0.00     0.196 C 
HETATM   21  O   UNL     1      20.057  69.574  20.453  1.00  0.00    -0.391 OA
HETATM   22  O   UNL     1      21.885  67.253  19.299  1.00  0.00    -0.348 OA
HETATM   23  C   UNL     1      20.910  66.907  21.691  1.00  0.00     0.149 C 
HETATM   24  C   UNL     1      20.845  66.845  18.374  1.00  0.00     0.296 C 
HETATM   25  O   UNL     1      20.200  65.621  18.788  1.00  0.00    -0.351 OA
HETATM   26  C   UNL     1      19.883  67.964  17.887  1.00  0.00     0.301 C 
HETATM   27  C   UNL     1      18.849  65.472  18.298  1.00  0.00     0.155 C 
HETATM   28  C   UNL     1      18.710  65.994  16.899  1.00  0.00     0.057 C 
HETATM   29  C   UNL     1      18.440  63.985  18.361  1.00  0.00     0.200 C 
HETATM   30  C   UNL     1      19.042  67.444  16.691  1.00  0.00     0.163 C 
HETATM   31  O   UNL     1      19.728  67.595  15.439  1.00  0.00    -0.393 OA
HETATM   32  H   UNL     1      20.534  67.041  15.505  1.00  0.00     0.210 HD
HETATM   33  O   UNL     1      18.511  63.539  19.723  1.00  0.00    -0.378 OA
HETATM   34  C   UNL     1      18.049  62.181  19.789  1.00  0.00     0.277 C 
HETATM   35  C   UNL     1      18.130  61.635  21.192  1.00  0.00     0.164 C 
HETATM   36  O   UNL     1      17.707  60.500  21.409  1.00  0.00    -0.648 OA
HETATM   37  O   UNL     1      18.664  62.330  22.226  1.00  0.00    -0.775 OA
HETATM   38  H   UNL     1      19.028  63.188  22.108  1.00  0.00     0.167 HD
HETATM   39  N   UNL     1      20.631  69.160  17.444  1.00  0.00     0.090 N 
HETATM   40  H   UNL     1      19.945  69.898  17.276  1.00  0.00     0.313 HD
HETATM   41  H   UNL     1      21.224  69.478  18.209  1.00  0.00     0.313 HD
HETATM   42  O   UNL     1      21.132  67.288  22.972  1.00  0.00    -0.340 OA
HETATM   43  C   UNL     1      19.542  66.332  21.442  1.00  0.00     0.212 C 
HETATM   44  O   UNL     1      18.738  66.361  22.632  1.00  0.00    -0.378 OA
HETATM   45  C   UNL     1      17.420  65.902  22.297  1.00  0.00     0.277 C 
HETATM   46  C   UNL     1      16.577  65.877  23.542  1.00  0.00     0.164 C 
HETATM   47  O   UNL     1      16.073  64.823  23.924  1.00  0.00    -0.648 OA
HETATM   48  O   UNL     1      16.352  67.014  24.239  1.00  0.00    -0.775 OA
HETATM   49  H   UNL     1      16.727  67.829  23.958  1.00  0.00     0.167 HD
HETATM   50  H   UNL     1      19.433  69.026  20.969  1.00  0.00     0.210 HD
HETATM   51  H   UNL     1      19.622  69.793  22.947  1.00  0.00     0.313 HD
HETATM   52  H   UNL     1      20.291  71.184  22.360  1.00  0.00     0.313 HD
ENDBRANCH  15  16
ENDBRANCH   1  15
BRANCH  13  53
HETATM   53  O   UNL     1      23.714  70.295  28.819  1.00  0.00    -0.348 OA
BRANCH  53  54
HETATM   54  C   UNL     1      24.278  71.605  29.023  1.00  0.00     0.186 C 
HETATM   55  C   UNL     1      25.244  71.836  27.835  1.00  0.00     0.187 C 
HETATM   56  O   UNL     1      25.498  73.226  27.580  1.00  0.00    -0.391 OA
HETATM   57  C   UNL     1      26.531  70.991  28.006  1.00  0.00     0.303 C 
HETATM   58  H   UNL     1      26.097  73.543  28.279  1.00  0.00     0.210 HD
HETATM   59  N   UNL     1      27.511  71.348  26.964  1.00  0.00     0.090 N 
HETATM   60  C   UNL     1      27.157  71.108  29.419  1.00  0.00     0.296 C 
HETATM   61  H   UNL     1      28.267  70.661  27.017  1.00  0.00     0.313 HD
HETATM   62  H   UNL     1      27.055  71.211  26.060  1.00  0.00     0.313 HD
HETATM   63  O   UNL     1      26.166  70.785  30.419  1.00  0.00    -0.349 OA
HETATM   64  C   UNL     1      24.986  71.617  30.408  1.00  0.00     0.180 C 
HETATM   65  C   UNL     1      25.255  73.033  30.977  1.00  0.00     0.203 C 
HETATM   66  O   UNL     1      24.015  73.670  31.320  1.00  0.00    -0.378 OA
HETATM   67  C   UNL     1      24.268  75.017  31.753  1.00  0.00     0.277 C 
HETATM   68  C   UNL     1      24.644  75.894  30.588  1.00  0.00     0.164 C 
HETATM   69  O   UNL     1      25.718  76.494  30.590  1.00  0.00    -0.648 OA
HETATM   70  O   UNL     1      23.828  75.997  29.516  1.00  0.00    -0.775 OA
HETATM   71  H   UNL     1      23.020  75.517  29.483  1.00  0.00     0.167 HD
BRANCH  60  72
HETATM   72  O   UNL     1      27.774  72.397  29.632  1.00  0.00    -0.348 OA
HETATM   73  C   UNL     1      29.155  72.405  30.080  1.00  0.00     0.186 C 
HETATM   74  C   UNL     1      30.184  72.325  28.920  1.00  0.00     0.186 C 
HETATM   75  C   UNL     1      29.517  71.382  31.203  1.00  0.00     0.178 C 
HETATM   76  O   UNL     1      29.814  73.155  27.809  1.00  0.00    -0.391 OA
HETATM   77  C   UNL     1      30.448  70.865  28.482  1.00  0.00     0.289 C 
HETATM   78  H   UNL     1      29.008  72.752  27.428  1.00  0.00     0.210 HD
HETATM   79  N   UNL     1      31.714  70.799  27.727  1.00  0.00     0.088 N 
HETATM   80  C   UNL     1      30.557  69.949  29.724  1.00  0.00     0.167 C 
HETATM   81  H   UNL     1      31.584  71.342  26.870  1.00  0.00     0.313 HD
HETATM   82  H   UNL     1      31.841  69.826  27.439  1.00  0.00     0.313 HD
HETATM   83  O   UNL     1      30.756  70.703  30.930  1.00  0.00    -0.361 OA
HETATM   84  C   UNL     1      29.646  72.112  32.561  1.00  0.00     0.203 C 
HETATM   85  O   UNL     1      29.694  71.162  33.640  1.00  0.00    -0.378 OA
HETATM   86  C   UNL     1      28.353  70.836  34.044  1.00  0.00     0.277 C 
HETATM   87  C   UNL     1      28.389  69.694  35.021  1.00  0.00     0.164 C 
HETATM   88  O   UNL     1      29.000  69.809  36.082  1.00  0.00    -0.648 OA
HETATM   89  O   UNL     1      27.743  68.538  34.749  1.00  0.00    -0.775 OA
HETATM   90  H   UNL     1      27.262  68.435  33.947  1.00  0.00     0.167 HD
ENDBRANCH  60  72
ENDBRANCH  53  54
ENDBRANCH  13  53
TORSDOF 40
ENDMDL
MODEL 8
REMARK VINA RESULT:     -10.8      7.046     17.977
REMARK  5 active torsions:
REMARK  status: ('A' for Active; 'I' for Inactive)
REMARK    1  A    between atoms: C_2  and  O_55 
REMARK       I    between atoms: C_3  and  O_22 
REMARK       I    between atoms: N_4  and  C_10 
REMARK       I    between atoms: O_5  and  C_11 
REMARK       I    between atoms: C_7  and  C_15 
REMARK       I    between atoms: C_9  and  O_22 
REMARK       I    between atoms: C_15  and  O_16 
REMARK       I    between atoms: O_16  and  C_17 
REMARK       I    between atoms: C_17  and  C_18 
REMARK       I    between atoms: C_18  and  O_20 
REMARK       I    between atoms: C_23  and  O_24 
REMARK       I    between atoms: C_26  and  N_27 
REMARK    2  A    between atoms: C_30  and  O_40 
REMARK       I    between atoms: C_32  and  C_33 
REMARK       I    between atoms: C_33  and  O_34 
REMARK       I    between atoms: O_34  and  C_35 
REMARK       I    between atoms: C_35  and  C_36 
REMARK       I    between atoms: C_36  and  O_38 
REMARK    3  A    between atoms: O_40  and  C_41 
REMARK       I    between atoms: C_42  and  C_43 
REMARK       I    between atoms: C_43  and  O_44 
REMARK       I    between atoms: C_46  and  O_47 
REMARK       I    between atoms: C_49  and  N_50 
REMARK    4  A    between atoms: C_53  and  O_55 
REMARK       I    between atoms: C_56  and  O_57 
REMARK       I    between atoms: C_59  and  N_60 
REMARK    5  A    between atoms: C_63  and  O_64 
REMARK       I    between atoms: O_64  and  C_73 
REMARK       I    between atoms: C_66  and  C_67 
REMARK       I    between atoms: C_67  and  O_68 
REMARK       I    between atoms: O_68  and  C_69 
REMARK       I    between atoms: C_69  and  C_70 
REMARK       I    between atoms: C_70  and  O_71 
REMARK       I    between atoms: C_74  and  O_75 
REMARK       I    between atoms: C_77  and  N_78 
REMARK       I    between atoms: C_83  and  C_84 
REMARK       I    between atoms: C_84  and  O_85 
REMARK       I    between atoms: O_85  and  C_86 
REMARK       I    between atoms: C_86  and  C_87 
REMARK       I    between atoms: C_87  and  O_89 
ROOT
HETATM    1  C   UNL     1      32.732  68.807  28.315  1.00  0.00     0.186 C 
HETATM    2  C   UNL     1      34.006  69.668  28.498  1.00  0.00     0.179 C 
HETATM    3  C   UNL     1      34.010  70.887  27.551  1.00  0.00     0.198 C 
HETATM    4  O   UNL     1      35.231  71.620  27.694  1.00  0.00    -0.398 OA
HETATM    5  H   UNL     1      35.157  72.357  27.052  1.00  0.00     0.209 HD
HETATM    6  C   UNL     1      32.902  67.533  29.172  1.00  0.00     0.187 C 
HETATM    7  O   UNL     1      33.921  66.685  28.626  1.00  0.00    -0.391 OA
HETATM    8  H   UNL     1      33.603  66.444  27.730  1.00  0.00     0.210 HD
HETATM    9  C   UNL     1      33.198  67.908  30.645  1.00  0.00     0.303 C 
HETATM   10  N   UNL     1      33.664  66.718  31.385  1.00  0.00     0.090 N 
HETATM   11  H   UNL     1      33.720  66.978  32.372  1.00  0.00     0.313 HD
HETATM   12  H   UNL     1      32.930  66.009  31.311  1.00  0.00     0.313 HD
HETATM   13  C   UNL     1      34.183  69.098  30.845  1.00  0.00     0.296 C 
HETATM   14  O   UNL     1      34.127  70.143  29.850  1.00  0.00    -0.349 OA
ENDROOT
BRANCH   1  15
HETATM   15  O   UNL     1      31.555  69.528  28.750  1.00  0.00    -0.348 OA
BRANCH  15  16
HETATM   16  C   UNL     1      30.319  69.104  28.129  1.00  0.00     0.297 C 
HETATM   17  C   UNL     1      30.161  69.619  26.666  1.00  0.00     0.303 C 
HETATM   18  C   UNL     1      28.724  69.375  26.086  1.00  0.00     0.188 C 
HETATM   19  N   UNL     1      30.593  71.030  26.556  1.00  0.00     0.090 N 
HETATM   20  C   UNL     1      27.859  68.554  27.085  1.00  0.00     0.196 C 
HETATM   21  O   UNL     1      28.100  70.610  25.708  1.00  0.00    -0.391 OA
HETATM   22  O   UNL     1      26.640  67.934  26.583  1.00  0.00    -0.348 OA
HETATM   23  C   UNL     1      27.930  69.233  28.438  1.00  0.00     0.149 C 
HETATM   24  C   UNL     1      25.339  68.566  26.476  1.00  0.00     0.296 C 
HETATM   25  O   UNL     1      24.768  68.858  27.770  1.00  0.00    -0.351 OA
HETATM   26  C   UNL     1      25.216  69.708  25.430  1.00  0.00     0.301 C 
HETATM   27  C   UNL     1      23.826  69.953  27.765  1.00  0.00     0.155 C 
HETATM   28  C   UNL     1      22.985  69.950  26.523  1.00  0.00     0.057 C 
HETATM   29  C   UNL     1      22.931  69.868  29.021  1.00  0.00     0.200 C 
HETATM   30  C   UNL     1      23.720  70.063  25.218  1.00  0.00     0.163 C 
HETATM   31  O   UNL     1      23.092  69.211  24.249  1.00  0.00    -0.393 OA
HETATM   32  H   UNL     1      23.139  68.304  24.617  1.00  0.00     0.210 HD
HETATM   33  O   UNL     1      23.760  69.950  30.189  1.00  0.00    -0.378 OA
HETATM   34  C   UNL     1      22.919  69.957  31.352  1.00  0.00     0.277 C 
HETATM   35  C   UNL     1      23.729  70.006  32.624  1.00  0.00     0.164 C 
HETATM   36  O   UNL     1      23.136  70.080  33.699  1.00  0.00    -0.648 OA
HETATM   37  O   UNL     1      25.083  69.956  32.639  1.00  0.00    -0.775 OA
HETATM   38  H   UNL     1      25.583  69.870  31.848  1.00  0.00     0.167 HD
HETATM   39  N   UNL     1      25.787  69.306  24.126  1.00  0.00     0.090 N 
HETATM   40  H   UNL     1      25.804  70.140  23.536  1.00  0.00     0.313 HD
HETATM   41  H   UNL     1      26.755  69.023  24.265  1.00  0.00     0.313 HD
HETATM   42  O   UNL     1      29.192  69.424  28.890  1.00  0.00    -0.340 OA
HETATM   43  C   UNL     1      26.938  70.259  28.915  1.00  0.00     0.212 C 
HETATM   44  O   UNL     1      27.572  71.265  29.722  1.00  0.00    -0.378 OA
HETATM   45  C   UNL     1      26.594  72.262  30.049  1.00  0.00     0.277 C 
HETATM   46  C   UNL     1      27.228  73.298  30.936  1.00  0.00     0.164 C 
HETATM   47  O   UNL     1      26.775  73.508  32.060  1.00  0.00    -0.648 OA
HETATM   48  O   UNL     1      28.287  74.018  30.500  1.00  0.00    -0.775 OA
HETATM   49  H   UNL     1      28.642  73.873  29.643  1.00  0.00     0.167 HD
HETATM   50  H   UNL     1      27.976  71.120  26.532  1.00  0.00     0.210 HD
HETATM   51  H   UNL     1      29.965  71.613  27.111  1.00  0.00     0.313 HD
HETATM   52  H   UNL     1      30.502  71.316  25.578  1.00  0.00     0.313 HD
ENDBRANCH  15  16
ENDBRANCH   1  15
BRANCH  13  53
HETATM   53  O   UNL     1      35.513  68.723  31.273  1.00  0.00    -0.348 OA
BRANCH  53  54
HETATM   54  C   UNL     1      36.616  69.054  30.407  1.00  0.00     0.186 C 
HETATM   55  C   UNL     1      36.715  67.890  29.390  1.00  0.00     0.187 C 
HETATM   56  O   UNL     1      37.384  68.262  28.175  1.00  0.00    -0.391 OA
HETATM   57  C   UNL     1      37.309  66.627  30.063  1.00  0.00     0.303 C 
HETATM   58  H   UNL     1      38.335  68.323  28.374  1.00  0.00     0.210 HD
HETATM   59  N   UNL     1      37.559  65.586  29.049  1.00  0.00     0.090 N 
HETATM   60  C   UNL     1      38.590  66.916  30.887  1.00  0.00     0.296 C 
HETATM   61  H   UNL     1      37.793  64.728  29.554  1.00  0.00     0.313 HD
HETATM   62  H   UNL     1      36.672  65.411  28.571  1.00  0.00     0.313 HD
HETATM   63  O   UNL     1      38.324  67.962  31.847  1.00  0.00    -0.349 OA
HETATM   64  C   UNL     1      37.889  69.219  31.285  1.00  0.00     0.180 C 
HETATM   65  C   UNL     1      39.043  69.993  30.600  1.00  0.00     0.203 C 
HETATM   66  O   UNL     1      38.676  71.369  30.423  1.00  0.00    -0.378 OA
HETATM   67  C   UNL     1      39.712  72.055  29.700  1.00  0.00     0.277 C 
HETATM   68  C   UNL     1      39.715  71.646  28.250  1.00  0.00     0.164 C 
HETATM   69  O   UNL     1      40.729  71.163  27.750  1.00  0.00    -0.648 OA
HETATM   70  O   UNL     1      38.597  71.768  27.501  1.00  0.00    -0.775 OA
HETATM   71  H   UNL     1      37.803  72.102  27.879  1.00  0.00     0.167 HD
BRANCH  60  72
HETATM   72  O   UNL     1      39.724  67.203  30.040  1.00  0.00    -0.348 OA
HETATM   73  C   UNL     1      40.953  66.477  30.307  1.00  0.00     0.186 C 
HETATM   74  C   UNL     1      41.024  65.097  29.599  1.00  0.00     0.186 C 
HETATM   75  C   UNL     1      41.354  66.341  31.810  1.00  0.00     0.178 C 
HETATM   76  O   UNL     1      40.535  65.154  28.251  1.00  0.00    -0.391 OA
HETATM   77  C   UNL     1      40.318  63.990  30.418  1.00  0.00     0.289 C 
HETATM   78  H   UNL     1      39.575  65.326  28.318  1.00  0.00     0.210 HD
HETATM   79  N   UNL     1      40.781  62.667  29.959  1.00  0.00     0.088 N 
HETATM   80  C   UNL     1      40.651  64.146  31.921  1.00  0.00     0.167 C 
HETATM   81  H   UNL     1      40.472  62.556  28.991  1.00  0.00     0.313 HD
HETATM   82  H   UNL     1      40.278  61.966  30.509  1.00  0.00     0.313 HD
HETATM   83  O   UNL     1      41.783  65.005  32.132  1.00  0.00    -0.361 OA
HETATM   84  C   UNL     1      42.507  67.319  32.139  1.00  0.00     0.203 C 
HETATM   85  O   UNL     1      42.695  67.414  33.562  1.00  0.00    -0.378 OA
HETATM   86  C   UNL     1      41.811  68.419  34.090  1.00  0.00     0.277 C 
HETATM   87  C   UNL     1      41.849  68.377  35.592  1.00  0.00     0.164 C 
HETATM   88  O   UNL     1      42.907  68.570  36.188  1.00  0.00    -0.648 OA
HETATM   89  O   UNL     1      40.721  68.142  36.300  1.00  0.00    -0.775 OA
HETATM   90  H   UNL     1      39.900  68.004  35.863  1.00  0.00     0.167 HD
ENDBRANCH  60  72
ENDBRANCH  53  54
ENDBRANCH  13  53
TORSDOF 40
ENDMDL
MODEL 9
REMARK VINA RESULT:     -10.7      4.964     16.201
REMARK  5 active torsions:
REMARK  status: ('A' for Active; 'I' for Inactive)
REMARK    1  A    between atoms: C_2  and  O_55 
REMARK       I    between atoms: C_3  and  O_22 
REMARK       I    between atoms: N_4  and  C_10 
REMARK       I    between atoms: O_5  and  C_11 
REMARK       I    between atoms: C_7  and  C_15 
REMARK       I    between atoms: C_9  and  O_22 
REMARK       I    between atoms: C_15  and  O_16 
REMARK       I    between atoms: O_16  and  C_17 
REMARK       I    between atoms: C_17  and  C_18 
REMARK       I    between atoms: C_18  and  O_20 
REMARK       I    between atoms: C_23  and  O_24 
REMARK       I    between atoms: C_26  and  N_27 
REMARK    2  A    between atoms: C_30  and  O_40 
REMARK       I    between atoms: C_32  and  C_33 
REMARK       I    between atoms: C_33  and  O_34 
REMARK       I    between atoms: O_34  and  C_35 
REMARK       I    between atoms: C_35  and  C_36 
REMARK       I    between atoms: C_36  and  O_38 
REMARK    3  A    between atoms: O_40  and  C_41 
REMARK       I    between atoms: C_42  and  C_43 
REMARK       I    between atoms: C_43  and  O_44 
REMARK       I    between atoms: C_46  and  O_47 
REMARK       I    between atoms: C_49  and  N_50 
REMARK    4  A    between atoms: C_53  and  O_55 
REMARK       I    between atoms: C_56  and  O_57 
REMARK       I    between atoms: C_59  and  N_60 
REMARK    5  A    between atoms: C_63  and  O_64 
REMARK       I    between atoms: O_64  and  C_73 
REMARK       I    between atoms: C_66  and  C_67 
REMARK       I    between atoms: C_67  and  O_68 
REMARK       I    between atoms: O_68  and  C_69 
REMARK       I    between atoms: C_69  and  C_70 
REMARK       I    between atoms: C_70  and  O_71 
REMARK       I    between atoms: C_74  and  O_75 
REMARK       I    between atoms: C_77  and  N_78 
REMARK       I    between atoms: C_83  and  C_84 
REMARK       I    between atoms: C_84  and  O_85 
REMARK       I    between atoms: O_85  and  C_86 
REMARK       I    between atoms: C_86  and  C_87 
REMARK       I    between atoms: C_87  and  O_89 
ROOT
HETATM    1  C   UNL     1      29.391  68.963  27.677  1.00  0.00     0.186 C 
HETATM    2  C   UNL     1      30.632  69.875  27.838  1.00  0.00     0.179 C 
HETATM    3  C   UNL     1      30.661  70.990  26.770  1.00  0.00     0.198 C 
HETATM    4  O   UNL     1      31.855  71.768  26.902  1.00  0.00    -0.398 OA
HETATM    5  H   UNL     1      31.801  72.433  26.183  1.00  0.00     0.209 HD
HETATM    6  C   UNL     1      29.540  67.789  28.670  1.00  0.00     0.187 C 
HETATM    7  O   UNL     1      30.608  66.920  28.272  1.00  0.00    -0.391 OA
HETATM    8  H   UNL     1      30.348  66.578  27.390  1.00  0.00     0.210 HD
HETATM    9  C   UNL     1      29.744  68.323  30.109  1.00  0.00     0.303 C 
HETATM   10  N   UNL     1      30.194  67.230  30.994  1.00  0.00     0.090 N 
HETATM   11  H   UNL     1      30.187  67.592  31.950  1.00  0.00     0.313 HD
HETATM   12  H   UNL     1      29.482  66.496  30.955  1.00  0.00     0.313 HD
HETATM   13  C   UNL     1      30.687  69.555  30.237  1.00  0.00     0.296 C 
HETATM   14  O   UNL     1      30.664  70.490  29.137  1.00  0.00    -0.349 OA
ENDROOT
BRANCH   1  15
HETATM   15  O   UNL     1      28.174  69.691  27.970  1.00  0.00    -0.348 OA
BRANCH  15  16
HETATM   16  C   UNL     1      27.002  69.228  27.257  1.00  0.00     0.297 C 
HETATM   17  C   UNL     1      27.008  69.624  25.749  1.00  0.00     0.303 C 
HETATM   18  C   UNL     1      25.635  69.345  25.042  1.00  0.00     0.188 C 
HETATM   19  N   UNL     1      27.473  71.018  25.573  1.00  0.00     0.090 N 
HETATM   20  C   UNL     1      24.657  68.616  26.006  1.00  0.00     0.196 C 
HETATM   21  O   UNL     1      25.075  70.551  24.503  1.00  0.00    -0.391 OA
HETATM   22  O   UNL     1      23.487  67.966  25.429  1.00  0.00    -0.348 OA
HETATM   23  C   UNL     1      24.597  69.401  27.300  1.00  0.00     0.149 C 
HETATM   24  C   UNL     1      22.215  68.599  25.135  1.00  0.00     0.296 C 
HETATM   25  O   UNL     1      21.517  68.999  26.334  1.00  0.00    -0.351 OA
HETATM   26  C   UNL     1      22.221  69.653  23.994  1.00  0.00     0.301 C 
HETATM   27  C   UNL     1      20.598  70.098  26.142  1.00  0.00     0.155 C 
HETATM   28  C   UNL     1      19.893  70.001  24.823  1.00  0.00     0.057 C 
HETATM   29  C   UNL     1      19.576  70.123  27.299  1.00  0.00     0.200 C 
HETATM   30  C   UNL     1      20.762  70.002  23.598  1.00  0.00     0.163 C 
HETATM   31  O   UNL     1      20.225  69.079  22.639  1.00  0.00    -0.393 OA
HETATM   32  H   UNL     1      20.218  68.204  23.080  1.00  0.00     0.210 HD
HETATM   33  O   UNL     1      20.280  70.292  28.538  1.00  0.00    -0.378 OA
HETATM   34  C   UNL     1      19.321  70.400  29.602  1.00  0.00     0.277 C 
HETATM   35  C   UNL     1      19.994  70.545  30.944  1.00  0.00     0.164 C 
HETATM   36  O   UNL     1      19.293  70.711  31.941  1.00  0.00    -0.648 OA
HETATM   37  O   UNL     1      21.338  70.485  31.105  1.00  0.00    -0.775 OA
HETATM   38  H   UNL     1      21.917  70.332  30.382  1.00  0.00     0.167 HD
HETATM   39  N   UNL     1      22.919  69.142  22.794  1.00  0.00     0.090 N 
HETATM   40  H   UNL     1      23.012  69.925  22.145  1.00  0.00     0.313 HD
HETATM   41  H   UNL     1      23.862  68.863  23.057  1.00  0.00     0.313 HD
HETATM   42  O   UNL     1      25.808  69.618  27.867  1.00  0.00    -0.340 OA
HETATM   43  C   UNL     1      23.578  70.471  27.586  1.00  0.00     0.212 C 
HETATM   44  O   UNL     1      24.141  71.533  28.373  1.00  0.00    -0.378 OA
HETATM   45  C   UNL     1      23.151  72.562  28.515  1.00  0.00     0.277 C 
HETATM   46  C   UNL     1      23.705  73.661  29.379  1.00  0.00     0.164 C 
HETATM   47  O   UNL     1      23.140  73.965  30.428  1.00  0.00    -0.648 OA
HETATM   48  O   UNL     1      24.815  74.335  29.001  1.00  0.00    -0.775 OA
HETATM   49  H   UNL     1      25.256  74.118  28.200  1.00  0.00     0.167 HD
HETATM   50  H   UNL     1      24.874  71.128  25.266  1.00  0.00     0.210 HD
HETATM   51  H   UNL     1      26.800  71.649  26.011  1.00  0.00     0.313 HD
HETATM   52  H   UNL     1      27.489  71.224  24.572  1.00  0.00     0.313 HD
ENDBRANCH  15  16
ENDBRANCH   1  15
BRANCH  13  53
HETATM   53  O   UNL     1      32.000  69.265  30.774  1.00  0.00    -0.348 OA
BRANCH  53  54
HETATM   54  C   UNL     1      33.145  69.769  30.059  1.00  0.00     0.186 C 
HETATM   55  C   UNL     1      33.590  68.622  29.118  1.00  0.00     0.187 C 
HETATM   56  O   UNL     1      34.356  69.083  27.995  1.00  0.00    -0.391 OA
HETATM   57  C   UNL     1      34.285  67.495  29.922  1.00  0.00     0.303 C 
HETATM   58  H   UNL     1      35.242  69.314  28.324  1.00  0.00     0.210 HD
HETATM   59  N   UNL     1      34.856  66.496  29.001  1.00  0.00     0.090 N 
HETATM   60  C   UNL     1      35.363  68.020  30.906  1.00  0.00     0.296 C 
HETATM   61  H   UNL     1      35.157  65.701  29.571  1.00  0.00     0.313 HD
HETATM   62  H   UNL     1      34.093  66.159  28.411  1.00  0.00     0.313 HD
HETATM   63  O   UNL     1      34.784  69.020  31.773  1.00  0.00    -0.349 OA
HETATM   64  C   UNL     1      34.227  70.171  31.100  1.00  0.00     0.180 C 
HETATM   65  C   UNL     1      35.320  71.123  30.552  1.00  0.00     0.203 C 
HETATM   66  O   UNL     1      34.753  72.410  30.265  1.00  0.00    -0.378 OA
HETATM   67  C   UNL     1      35.750  73.253  29.666  1.00  0.00     0.277 C 
HETATM   68  C   UNL     1      36.036  72.825  28.251  1.00  0.00     0.164 C 
HETATM   69  O   UNL     1      37.181  72.518  27.920  1.00  0.00    -0.648 OA
HETATM   70  O   UNL     1      35.036  72.734  27.346  1.00  0.00    -0.775 OA
HETATM   71  H   UNL     1      34.151  72.931  27.593  1.00  0.00     0.167 HD
BRANCH  60  72
HETATM   72  O   UNL     1      36.544  68.486  30.216  1.00  0.00    -0.348 OA
HETATM   73  C   UNL     1      37.827  68.015  30.705  1.00  0.00     0.186 C 
HETATM   74  C   UNL     1      38.256  66.650  30.104  1.00  0.00     0.186 C 
HETATM   75  C   UNL     1      38.009  68.012  32.256  1.00  0.00     0.178 C 
HETATM   76  O   UNL     1      37.980  66.565  28.699  1.00  0.00    -0.391 OA
HETATM   77  C   UNL     1      37.646  65.459  30.881  1.00  0.00     0.289 C 
HETATM   78  H   UNL     1      37.005  66.555  28.615  1.00  0.00     0.210 HD
HETATM   79  N   UNL     1      38.407  64.233  30.580  1.00  0.00     0.088 N 
HETATM   80  C   UNL     1      37.709  65.729  32.403  1.00  0.00     0.167 C 
HETATM   81  H   UNL     1      38.276  64.030  29.587  1.00  0.00     0.313 HD
HETATM   82  H   UNL     1      37.961  63.469  31.094  1.00  0.00     0.313 HD
HETATM   83  O   UNL     1      38.619  66.794  32.721  1.00  0.00    -0.361 OA
HETATM   84  C   UNL     1      38.900  69.202  32.686  1.00  0.00     0.203 C 
HETATM   85  O   UNL     1      38.845  69.382  34.111  1.00  0.00    -0.378 OA
HETATM   86  C   UNL     1      37.722  70.219  34.440  1.00  0.00     0.277 C 
HETATM   87  C   UNL     1      37.534  70.238  35.932  1.00  0.00     0.164 C 
HETATM   88  O   UNL     1      38.435  70.649  36.661  1.00  0.00    -0.648 OA
HETATM   89  O   UNL     1      36.372  69.820  36.482  1.00  0.00    -0.775 OA
HETATM   90  H   UNL     1      35.668  69.513  35.940  1.00  0.00     0.167 HD
ENDBRANCH  60  72
ENDBRANCH  53  54
ENDBRANCH  13  53
TORSDOF 40
ENDMDL
