MODEL 1
REMARK VINA RESULT:      -4.7      0.000      0.000
REMARK WARNING: 32 MAX_TORS EXCEEDED!!!
REMARK  88 active torsions:
REMARK  status: ('A' for Active; 'I' for Inactive)
REMARK    1  A    between atoms: C_1  and  O_28 
REMARK    2  A    between atoms: C_2  and  C_6 
REMARK    3  A    between atoms: C_3  and  O_8 
REMARK    4  A    between atoms: C_4  and  N_10 
REMARK    5  A    between atoms: C_5  and  O_11 
REMARK    6  A    between atoms: C_6  and  O_65 
REMARK    7  A    between atoms: O_11  and  C_18 
REMARK    8  A    between atoms: O_13  and  C_16 
REMARK    9  A    between atoms: C_15  and  C_21 
REMARK   10  A    between atoms: O_17  and  C_20 
REMARK   11  A    between atoms: O_17  and  C_39 
REMARK   12  A    between atoms: N_19  and  C_22 
REMARK   13  A    between atoms: N_19  and  C_161 
REMARK   14  A    between atoms: C_21  and  O_67 
REMARK   15  A    between atoms: O_24  and  C_27 
REMARK   16  A    between atoms: C_26  and  C_32 
REMARK   17  A    between atoms: O_28  and  C_31 
REMARK   18  A    between atoms: C_29  and  O_49 
REMARK   19  A    between atoms: N_30  and  C_33 
REMARK   20  A    between atoms: C_32  and  O_63 
REMARK   21  A    between atoms: O_35  and  C_38 
REMARK   22  A    between atoms: C_37  and  C_42 
REMARK   23  A    between atoms: N_40  and  C_43 
REMARK   24  A    between atoms: C_42  and  O_69 
REMARK   25  A    between atoms: O_45  and  C_48 
REMARK   26  A    between atoms: C_47  and  C_53 
REMARK   27  A    between atoms: O_49  and  C_52 
REMARK   28  A    between atoms: N_51  and  C_54 
REMARK   29  A    between atoms: N_51  and  C_71 
REMARK   30  A    between atoms: C_53  and  O_61 
REMARK   31  A    between atoms: C_71  and  C_73 
REMARK   32  A    between atoms: C_73  and  C_74 
REMARK   33  A    between atoms: C_73  and  C_83 
REMARK   34  A    between atoms: C_74  and  C_75 
REMARK   35  A    between atoms: C_75  and  C_76 
REMARK   36  A    between atoms: C_75  and  C_87 
REMARK   37  A    between atoms: C_76  and  C_77 
REMARK   38  A    between atoms: C_77  and  C_78 
REMARK   39  A    between atoms: C_77  and  C_91 
REMARK   40  A    between atoms: C_78  and  C_79 
REMARK   41  A    between atoms: C_79  and  C_80 
REMARK   42  A    between atoms: C_79  and  C_95 
REMARK   43  A    between atoms: C_80  and  C_81 
REMARK   44  A    between atoms: C_81  and  C_99 
REMARK   45  A    between atoms: C_83  and  C_84 
REMARK   46  A    between atoms: C_84  and  C_85 
REMARK   47  A    between atoms: C_85  and  N_103 
REMARK   48  A    between atoms: C_87  and  C_88 
REMARK   49  A    between atoms: C_88  and  C_89 
REMARK   50  A    between atoms: C_89  and  N_104 
REMARK   51  A    between atoms: C_91  and  C_92 
REMARK   52  A    between atoms: C_92  and  C_93 
REMARK   53  A    between atoms: C_93  and  N_105 
REMARK   54  A    between atoms: C_95  and  C_96 
REMARK   55  A    between atoms: C_96  and  C_97 
REMARK   56  A    between atoms: C_97  and  N_106 
REMARK   57  A    between atoms: C_99  and  C_100 
REMARK   58  A    between atoms: C_100  and  C_101 
REMARK   59  A    between atoms: C_101  and  N_107 
REMARK   60  A    between atoms: N_126  and  C_129 
REMARK   61  A    between atoms: C_129  and  C_135 
REMARK   62  A    between atoms: C_130  and  C_135 
REMARK   63  A    between atoms: C_130  and  C_142 
REMARK   64  A    between atoms: N_132  and  C_139 
REMARK   65  A    between atoms: C_136  and  C_137 
REMARK   66  A    between atoms: C_136  and  C_146 
REMARK   67  A    between atoms: C_137  and  C_139 
REMARK   68  A    between atoms: N_141  and  C_152 
REMARK   69  A    between atoms: C_142  and  C_153 
REMARK   70  A    between atoms: C_142  and  C_159 
REMARK   71  A    between atoms: C_144  and  C_152 
REMARK   72  A    between atoms: C_144  and  C_156 
REMARK   73  A    between atoms: C_146  and  C_162 
REMARK   74  A    between atoms: C_146  and  C_153 
REMARK   75  A    between atoms: C_148  and  C_156 
REMARK   76  A    between atoms: C_148  and  C_149 
REMARK   77  A    between atoms: C_149  and  C_163 
REMARK   78  A    between atoms: C_150  and  C_161 
REMARK   79  A    between atoms: C_150  and  C_159 
REMARK   80  A    between atoms: C_150  and  C_160 
REMARK   81  A    between atoms: C_151  and  N_157 
REMARK   82  A    between atoms: C_151  and  C_154 
REMARK   83  A    between atoms: C_154  and  C_160 
REMARK   84  A    between atoms: C_162  and  C_163 
REMARK   85  A    between atoms: C_163  and  C_169 
REMARK   86  A    between atoms: C_166  and  C_171 
REMARK   87  A    between atoms: C_166  and  C_169 
REMARK   88  A    between atoms: N_167  and  C_171 
ROOT
HETATM    1  C   UNL     1      24.854  69.551  26.726  1.00  0.00     0.186 C 
HETATM    2  C   UNL     1      24.926  70.501  25.510  1.00  0.00     0.179 C 
HETATM    3  C   UNL     1      24.111  68.249  26.362  1.00  0.00     0.187 C 
HETATM    4  C   UNL     1      22.822  68.534  25.554  1.00  0.00     0.303 C 
HETATM    5  C   UNL     1      23.137  69.404  24.288  1.00  0.00     0.296 C 
HETATM    6  O   UNL     1      24.496  69.856  24.297  1.00  0.00    -0.349 OA
ENDROOT
BRANCH   1   7
HETATM    7  O   UNL     1      26.193  69.234  27.130  1.00  0.00    -0.348 OA
BRANCH   7   8
HETATM    8  C   UNL     1      26.304  68.547  28.385  1.00  0.00     0.296 C 
HETATM    9  O   UNL     1      26.823  69.490  29.319  1.00  0.00    -0.349 OA
HETATM   10  C   UNL     1      27.279  68.976  30.580  1.00  0.00     0.179 C 
HETATM   11  C   UNL     1      28.066  67.651  30.498  1.00  0.00     0.186 C 
HETATM   12  C   UNL     1      28.442  67.302  29.063  1.00  0.00     0.187 C 
HETATM   13  C   UNL     1      27.174  67.256  28.205  1.00  0.00     0.303 C 
BRANCH  10  14
HETATM   14  C   UNL     1      26.072  68.871  31.527  1.00  0.00     0.198 C 
BRANCH  14  15
HETATM   15  O   UNL     1      26.268  67.820  32.472  1.00  0.00    -0.398 OA
HETATM   16  H   UNL     1      27.117  67.394  32.245  1.00  0.00     0.209 HD
ENDBRANCH  14  15
ENDBRANCH  10  14
BRANCH  11  17
HETATM   17  O   UNL     1      29.297  67.778  31.227  1.00  0.00    -0.348 OA
BRANCH  17  18
HETATM   18  C   UNL     1      29.616  66.626  32.001  1.00  0.00     0.296 C 
HETATM   19  O   UNL     1      28.841  66.651  33.206  1.00  0.00    -0.351 OA
HETATM   20  C   UNL     1      28.759  65.355  33.831  1.00  0.00     0.150 C 
HETATM   21  C   UNL     1      30.072  64.571  33.644  1.00  0.00     0.068 C 
HETATM   22  C   UNL     1      31.252  65.552  33.574  1.00  0.00     0.158 C 
HETATM   23  C   UNL     1      31.156  66.518  32.345  1.00  0.00     0.303 C 
BRANCH  20  24
HETATM   24  C   UNL     1      27.488  64.615  33.388  1.00  0.00     0.196 C 
BRANCH  24  25
HETATM   25  O   UNL     1      26.309  65.314  33.781  1.00  0.00    -0.398 OA
HETATM   26  H   UNL     1      26.396  66.218  33.426  1.00  0.00     0.209 HD
ENDBRANCH  24  25
ENDBRANCH  20  24
BRANCH  22  27
HETATM   27  O   UNL     1      31.242  66.308  34.797  1.00  0.00    -0.393 OA
HETATM   28  H   UNL     1      31.184  67.254  34.555  1.00  0.00     0.210 HD
ENDBRANCH  22  27
BRANCH  23  29
HETATM   29  N   UNL     1      31.798  67.840  32.635  1.00  0.00     0.096 N 
HETATM   30  H   UNL     1      31.981  67.841  33.638  1.00  0.00     0.316 HD
BRANCH  29  31
HETATM   31  C   UNL     1      33.030  68.201  31.883  1.00  0.00     0.287 C 
BRANCH  31  32
HETATM   32  C   UNL     1      33.126  69.748  31.431  1.00  0.00     0.044 C 
HETATM   33  C   UNL     1      31.712  70.274  31.143  1.00  0.00     0.025 C 
BRANCH  32  34
HETATM   34  C   UNL     1      34.104  69.966  30.154  1.00  0.00     0.035 C 
BRANCH  34  35
HETATM   35  C   UNL     1      33.744  69.568  28.615  1.00  0.00     0.019 C 
HETATM   36  C   UNL     1      32.730  68.404  28.780  1.00  0.00     0.023 C 
BRANCH  35  37
HETATM   37  C   UNL     1      35.091  69.047  27.876  1.00  0.00     0.033 C 
BRANCH  37  38
HETATM   38  C   UNL     1      36.610  68.918  28.483  1.00  0.00     0.019 C 
HETATM   39  C   UNL     1      37.488  68.118  27.507  1.00  0.00     0.023 C 
BRANCH  38  40
HETATM   40  C   UNL     1      36.454  68.098  29.852  1.00  0.00     0.033 C 
BRANCH  40  41
HETATM   41  C   UNL     1      36.324  66.499  30.120  1.00  0.00     0.019 C 
HETATM   42  C   UNL     1      35.036  66.079  29.360  1.00  0.00     0.023 C 
BRANCH  41  43
HETATM   43  C   UNL     1      37.513  65.583  29.673  1.00  0.00     0.033 C 
BRANCH  43  44
HETATM   44  C   UNL     1      38.955  65.537  30.308  1.00  0.00     0.014 C 
HETATM   45  C   UNL     1      38.846  64.645  31.576  1.00  0.00     0.023 C 
HETATM   46  C   UNL     1      39.465  66.892  30.836  1.00  0.00     0.023 C 
BRANCH  44  47
HETATM   47  C   UNL     1      40.012  64.968  29.330  1.00  0.00     0.136 C 
HETATM   48  O   UNL     1      40.221  65.532  28.251  1.00  0.00    -0.297 OA
BRANCH  47  49
HETATM   49  C   UNL     1      40.731  63.658  29.642  1.00  0.00     0.109 C 
BRANCH  49  50
HETATM   50  C   UNL     1      42.033  63.923  30.414  1.00  0.00     0.279 C 
BRANCH  50  51
HETATM   51  N   UNL     1      42.898  64.922  29.751  1.00  0.00     0.080 N 
HETATM   52  C   UNL     1      43.323  65.978  30.671  1.00  0.00     0.309 C 
HETATM   53  C   UNL     1      44.085  64.268  29.186  1.00  0.00     0.309 C 
ENDBRANCH  50  51
ENDBRANCH  49  50
ENDBRANCH  47  49
ENDBRANCH  44  47
ENDBRANCH  43  44
ENDBRANCH  41  43
BRANCH  41  54
HETATM   54  C   UNL     1      35.998  66.317  31.639  1.00  0.00     0.137 C 
HETATM   55  O   UNL     1      36.499  67.037  32.497  1.00  0.00    -0.297 OA
BRANCH  54  56
HETATM   56  C   UNL     1      35.202  65.098  32.062  1.00  0.00     0.109 C 
BRANCH  56  57
HETATM   57  C   UNL     1      34.790  65.137  33.534  1.00  0.00     0.279 C 
BRANCH  57  58
HETATM   58  N   UNL     1      34.970  63.793  34.121  1.00  0.00     0.080 N 
HETATM   59  C   UNL     1      34.663  62.748  33.142  1.00  0.00     0.309 C 
HETATM   60  C   UNL     1      36.325  63.610  34.633  1.00  0.00     0.309 C 
ENDBRANCH  57  58
ENDBRANCH  56  57
ENDBRANCH  54  56
ENDBRANCH  41  54
ENDBRANCH  40  41
ENDBRANCH  38  40
BRANCH  38  61
HETATM   61  C   UNL     1      37.377  70.234  28.785  1.00  0.00     0.137 C 
HETATM   62  O   UNL     1      36.900  71.317  28.426  1.00  0.00    -0.297 OA
BRANCH  61  63
HETATM   63  C   UNL     1      38.684  70.242  29.539  1.00  0.00     0.109 C 
BRANCH  63  64
HETATM   64  C   UNL     1      38.716  71.221  30.722  1.00  0.00     0.279 C 
BRANCH  64  65
HETATM   65  N   UNL     1      39.449  72.460  30.388  1.00  0.00     0.080 N 
HETATM   66  C   UNL     1      39.996  73.099  31.588  1.00  0.00     0.309 C 
HETATM   67  C   UNL     1      40.542  72.162  29.458  1.00  0.00     0.309 C 
ENDBRANCH  64  65
ENDBRANCH  63  64
ENDBRANCH  61  63
ENDBRANCH  38  61
ENDBRANCH  37  38
ENDBRANCH  35  37
BRANCH  35  68
HETATM   68  C   UNL     1      33.118  70.649  27.684  1.00  0.00     0.137 C 
HETATM   69  O   UNL     1      33.844  71.561  27.270  1.00  0.00    -0.297 OA
BRANCH  68  70
HETATM   70  C   UNL     1      31.633  70.641  27.292  1.00  0.00     0.109 C 
BRANCH  70  71
HETATM   71  C   UNL     1      30.837  71.802  27.937  1.00  0.00     0.279 C 
BRANCH  71  72
HETATM   72  N   UNL     1      29.424  71.597  28.316  1.00  0.00     0.080 N 
HETATM   73  C   UNL     1      28.965  72.521  29.339  1.00  0.00     0.309 C 
HETATM   74  C   UNL     1      28.575  71.769  27.126  1.00  0.00     0.309 C 
ENDBRANCH  71  72
ENDBRANCH  70  71
ENDBRANCH  68  70
ENDBRANCH  35  68
ENDBRANCH  34  35
ENDBRANCH  32  34
BRANCH  32  75
HETATM   75  C   UNL     1      33.833  70.423  32.633  1.00  0.00     0.138 C 
HETATM   76  O   UNL     1      33.260  70.518  33.727  1.00  0.00    -0.297 OA
BRANCH  75  77
HETATM   77  C   UNL     1      35.172  71.107  32.466  1.00  0.00     0.109 C 
BRANCH  77  78
HETATM   78  C   UNL     1      36.172  70.482  33.422  1.00  0.00     0.279 C 
BRANCH  78  79
HETATM   79  N   UNL     1      37.010  71.445  34.151  1.00  0.00     0.080 N 
HETATM   80  C   UNL     1      36.702  71.443  35.581  1.00  0.00     0.309 C 
HETATM   81  C   UNL     1      36.809  72.792  33.606  1.00  0.00     0.309 C 
ENDBRANCH  78  79
ENDBRANCH  77  78
ENDBRANCH  75  77
ENDBRANCH  32  75
ENDBRANCH  31  32
ENDBRANCH  29  31
ENDBRANCH  23  29
ENDBRANCH  17  18
ENDBRANCH  11  17
BRANCH  12  82
HETATM   82  O   UNL     1      29.396  68.240  28.545  1.00  0.00    -0.391 OA
HETATM   83  H   UNL     1      28.888  68.794  27.917  1.00  0.00     0.210 HD
ENDBRANCH  12  82
BRANCH  13  84
HETATM   84  N   UNL     1      27.522  66.901  26.814  1.00  0.00     0.090 N 
HETATM   85  H   UNL     1      28.433  67.337  26.635  1.00  0.00     0.313 HD
HETATM   86  H   UNL     1      26.885  67.404  26.182  1.00  0.00     0.313 HD
ENDBRANCH  13  84
ENDBRANCH   7   8
ENDBRANCH   1   7
BRANCH   2  87
HETATM   87  C   UNL     1      24.162  71.809  25.787  1.00  0.00     0.198 C 
BRANCH  87  88
HETATM   88  O   UNL     1      24.503  72.358  27.053  1.00  0.00    -0.398 OA
HETATM   89  H   UNL     1      25.221  73.002  26.922  1.00  0.00     0.209 HD
ENDBRANCH  87  88
ENDBRANCH   2  87
BRANCH   3  90
HETATM   90  O   UNL     1      24.967  67.360  25.626  1.00  0.00    -0.391 OA
HETATM   91  H   UNL     1      24.780  67.508  24.676  1.00  0.00     0.210 HD
ENDBRANCH   3  90
BRANCH   4  92
HETATM   92  N   UNL     1      22.098  67.281  25.233  1.00  0.00     0.090 N 
HETATM   93  H   UNL     1      22.129  67.124  24.223  1.00  0.00     0.313 HD
HETATM   94  H   UNL     1      21.102  67.475  25.402  1.00  0.00     0.313 HD
ENDBRANCH   4  92
BRANCH   5  95
HETATM   95  O   UNL     1      22.971  68.641  23.074  1.00  0.00    -0.348 OA
BRANCH  95  96
HETATM   96  C   UNL     1      22.279  69.307  21.977  1.00  0.00     0.186 C 
HETATM   97  C   UNL     1      22.681  68.683  20.629  1.00  0.00     0.180 C 
HETATM   98  O   UNL     1      21.566  68.208  19.877  1.00  0.00    -0.349 OA
HETATM   99  C   UNL     1      20.437  69.070  19.756  1.00  0.00     0.286 C 
HETATM  100  C   UNL     1      19.796  69.575  21.124  1.00  0.00     0.167 C 
HETATM  101  C   UNL     1      20.758  69.089  22.249  1.00  0.00     0.177 C 
BRANCH  97 102
HETATM  102  C   UNL     1      23.516  69.619  19.741  1.00  0.00     0.198 C 
BRANCH 102 103
HETATM  103  O   UNL     1      23.411  70.965  20.202  1.00  0.00    -0.398 OA
HETATM  104  H   UNL     1      23.671  70.978  21.145  1.00  0.00     0.209 HD
ENDBRANCH 102 103
ENDBRANCH  97 102
BRANCH  99 105
HETATM  105  O   UNL     1      19.493  68.278  19.036  1.00  0.00    -0.348 OA
BRANCH 105 106
HETATM  106  C   UNL     1      20.046  67.265  18.210  1.00  0.00     0.186 C 
HETATM  107  C   UNL     1      19.204  65.977  18.317  1.00  0.00     0.176 C 
HETATM  108  O   UNL     1      19.180  65.228  17.078  1.00  0.00    -0.379 OA
HETATM  109  C   UNL     1      20.411  65.286  16.352  1.00  0.00     0.206 C 
HETATM  110  C   UNL     1      20.713  66.716  15.852  1.00  0.00     0.272 C 
HETATM  111  C   UNL     1      20.026  67.765  16.754  1.00  0.00     0.184 C 
BRANCH 107 112
HETATM  112  C   UNL     1      19.664  65.050  19.449  1.00  0.00     0.198 C 
BRANCH 112 113
HETATM  113  O   UNL     1      19.885  65.806  20.638  1.00  0.00    -0.398 OA
HETATM  114  H   UNL     1      20.854  65.877  20.742  1.00  0.00     0.209 HD
ENDBRANCH 112 113
ENDBRANCH 107 112
BRANCH 110 115
HETATM  115  N   UNL     1      20.324  66.897  14.441  1.00  0.00     0.087 N 
HETATM  116  H   UNL     1      19.578  67.596  14.405  1.00  0.00     0.313 HD
HETATM  117  H   UNL     1      19.842  66.043  14.145  1.00  0.00     0.313 HD
ENDBRANCH 110 115
BRANCH 111 118
HETATM  118  O   UNL     1      18.686  68.018  16.287  1.00  0.00    -0.391 OA
HETATM  119  H   UNL     1      18.501  67.388  15.567  1.00  0.00     0.210 HD
ENDBRANCH 111 118
ENDBRANCH 105 106
ENDBRANCH  99 105
BRANCH 100 120
HETATM  120  N   UNL     1      18.375  69.094  21.239  1.00  0.00    -0.389 N 
HETATM  121  H   UNL     1      18.410  68.082  21.077  1.00  0.00     0.159 HD
BRANCH 120 122
HETATM  122  C   UNL     1      17.341  69.595  22.154  1.00  0.00     0.073 C 
BRANCH 122 123
HETATM  123  C   UNL     1      16.568  68.617  23.166  1.00  0.00     0.049 C 
HETATM  124  C   UNL     1      15.115  69.120  23.193  1.00  0.00     0.029 C 
BRANCH 123 125
HETATM  125  C   UNL     1      17.115  68.368  24.694  1.00  0.00     0.039 C 
BRANCH 125 126
HETATM  126  C   UNL     1      17.503  69.602  25.740  1.00  0.00     0.019 C 
HETATM  127  C   UNL     1      18.944  69.944  25.271  1.00  0.00     0.023 C 
BRANCH 126 128
HETATM  128  C   UNL     1      16.628  70.893  25.715  1.00  0.00     0.137 C 
HETATM  129  O   UNL     1      15.584  70.904  26.379  1.00  0.00    -0.297 OA
BRANCH 128 130
HETATM  130  C   UNL     1      17.008  72.128  24.875  1.00  0.00     0.109 C 
BRANCH 130 131
HETATM  131  C   UNL     1      17.392  73.353  25.737  1.00  0.00     0.279 C 
BRANCH 131 132
HETATM  132  N   UNL     1      16.389  74.403  26.004  1.00  0.00     0.080 N 
HETATM  133  C   UNL     1      16.059  74.399  27.436  1.00  0.00     0.309 C 
HETATM  134  C   UNL     1      15.159  74.228  25.251  1.00  0.00     0.309 C 
ENDBRANCH 131 132
ENDBRANCH 130 131
ENDBRANCH 128 130
ENDBRANCH 126 128
BRANCH 126 135
HETATM  135  C   UNL     1      17.523  69.150  27.319  1.00  0.00     0.033 C 
BRANCH 135 136
HETATM  136  C   UNL     1      18.351  67.866  28.000  1.00  0.00     0.019 C 
HETATM  137  C   UNL     1      17.903  67.710  29.464  1.00  0.00     0.023 C 
BRANCH 136 138
HETATM  138  C   UNL     1      18.210  66.463  27.344  1.00  0.00     0.137 C 
HETATM  139  O   UNL     1      17.102  65.914  27.306  1.00  0.00    -0.297 OA
BRANCH 138 140
HETATM  140  C   UNL     1      19.385  65.742  26.731  1.00  0.00     0.109 C 
BRANCH 140 141
HETATM  141  C   UNL     1      19.058  64.949  25.454  1.00  0.00     0.279 C 
BRANCH 141 142
HETATM  142  N   UNL     1      20.080  63.921  25.163  1.00  0.00     0.080 N 
HETATM  143  C   UNL     1      19.457  62.746  24.545  1.00  0.00     0.309 C 
HETATM  144  C   UNL     1      20.790  63.509  26.377  1.00  0.00     0.309 C 
ENDBRANCH 141 142
ENDBRANCH 140 141
ENDBRANCH 138 140
ENDBRANCH 136 138
BRANCH 136 145
HETATM  145  C   UNL     1      19.914  68.244  27.975  1.00  0.00     0.033 C 
BRANCH 145 146
HETATM  146  C   UNL     1      20.782  69.260  28.933  1.00  0.00     0.019 C 
HETATM  147  C   UNL     1      21.315  70.351  27.964  1.00  0.00     0.023 C 
BRANCH 146 148
HETATM  148  C   UNL     1      20.060  69.959  30.142  1.00  0.00     0.033 C 
BRANCH 148 149
HETATM  149  C   UNL     1      19.452  71.420  30.168  1.00  0.00     0.014 C 
HETATM  150  C   UNL     1      18.127  71.329  30.977  1.00  0.00     0.023 C 
HETATM  151  C   UNL     1      19.019  71.960  28.789  1.00  0.00     0.023 C 
BRANCH 149 152
HETATM  152  C   UNL     1      20.407  72.459  30.812  1.00  0.00     0.136 C 
HETATM  153  O   UNL     1      20.075  73.646  30.874  1.00  0.00    -0.297 OA
BRANCH 152 154
HETATM  154  C   UNL     1      21.800  72.045  31.283  1.00  0.00     0.109 C 
BRANCH 154 155
HETATM  155  C   UNL     1      22.884  72.587  30.336  1.00  0.00     0.279 C 
BRANCH 155 156
HETATM  156  N   UNL     1      24.083  73.073  31.054  1.00  0.00     0.080 N 
HETATM  157  C   UNL     1      25.319  72.525  30.496  1.00  0.00     0.309 C 
HETATM  158  C   UNL     1      24.141  74.539  31.005  1.00  0.00     0.309 C 
ENDBRANCH 155 156
ENDBRANCH 154 155
ENDBRANCH 152 154
ENDBRANCH 149 152
ENDBRANCH 148 149
ENDBRANCH 146 148
BRANCH 146 159
HETATM  159  C   UNL     1      22.040  68.470  29.417  1.00  0.00     0.137 C 
HETATM  160  O   UNL     1      23.067  69.051  29.784  1.00  0.00    -0.297 OA
BRANCH 159 161
HETATM  161  C   UNL     1      22.060  66.967  29.246  1.00  0.00     0.109 C 
BRANCH 161 162
HETATM  162  C   UNL     1      23.027  66.260  30.199  1.00  0.00     0.279 C 
BRANCH 162 163
HETATM  163  N   UNL     1      24.205  65.796  29.434  1.00  0.00     0.080 N 
HETATM  164  C   UNL     1      23.812  65.017  28.263  1.00  0.00     0.309 C 
HETATM  165  C   UNL     1      25.101  65.005  30.279  1.00  0.00     0.309 C 
ENDBRANCH 162 163
ENDBRANCH 161 162
ENDBRANCH 159 161
ENDBRANCH 146 159
ENDBRANCH 145 146
ENDBRANCH 136 145
ENDBRANCH 135 136
ENDBRANCH 126 135
ENDBRANCH 125 126
ENDBRANCH 123 125
BRANCH 123 166
HETATM  166  C   UNL     1      16.817  67.264  22.439  1.00  0.00     0.141 C 
HETATM  167  O   UNL     1      17.890  66.657  22.553  1.00  0.00    -0.297 OA
BRANCH 166 168
HETATM  168  C   UNL     1      15.792  66.722  21.474  1.00  0.00     0.110 C 
BRANCH 168 169
HETATM  169  C   UNL     1      15.256  65.409  21.998  1.00  0.00     0.279 C 
BRANCH 169 170
HETATM  170  N   UNL     1      13.827  65.403  22.346  1.00  0.00     0.080 N 
HETATM  171  C   UNL     1      13.095  66.411  21.577  1.00  0.00     0.309 C 
HETATM  172  C   UNL     1      13.672  65.692  23.775  1.00  0.00     0.309 C 
ENDBRANCH 169 170
ENDBRANCH 168 169
ENDBRANCH 166 168
ENDBRANCH 123 166
ENDBRANCH 122 123
ENDBRANCH 120 122
ENDBRANCH 100 120
BRANCH 101 173
HETATM  173  O   UNL     1      20.532  67.682  22.485  1.00  0.00    -0.391 OA
HETATM  174  H   UNL     1      21.260  67.208  22.036  1.00  0.00     0.210 HD
ENDBRANCH 101 173
ENDBRANCH  95  96
ENDBRANCH   5  95
TORSDOF 88
ENDMDL
MODEL 2
REMARK VINA RESULT:      -4.5      6.625     22.045
REMARK WARNING: 32 MAX_TORS EXCEEDED!!!
REMARK  88 active torsions:
REMARK  status: ('A' for Active; 'I' for Inactive)
REMARK    1  A    between atoms: C_1  and  O_28 
REMARK    2  A    between atoms: C_2  and  C_6 
REMARK    3  A    between atoms: C_3  and  O_8 
REMARK    4  A    between atoms: C_4  and  N_10 
REMARK    5  A    between atoms: C_5  and  O_11 
REMARK    6  A    between atoms: C_6  and  O_65 
REMARK    7  A    between atoms: O_11  and  C_18 
REMARK    8  A    between atoms: O_13  and  C_16 
REMARK    9  A    between atoms: C_15  and  C_21 
REMARK   10  A    between atoms: O_17  and  C_20 
REMARK   11  A    between atoms: O_17  and  C_39 
REMARK   12  A    between atoms: N_19  and  C_22 
REMARK   13  A    between atoms: N_19  and  C_161 
REMARK   14  A    between atoms: C_21  and  O_67 
REMARK   15  A    between atoms: O_24  and  C_27 
REMARK   16  A    between atoms: C_26  and  C_32 
REMARK   17  A    between atoms: O_28  and  C_31 
REMARK   18  A    between atoms: C_29  and  O_49 
REMARK   19  A    between atoms: N_30  and  C_33 
REMARK   20  A    between atoms: C_32  and  O_63 
REMARK   21  A    between atoms: O_35  and  C_38 
REMARK   22  A    between atoms: C_37  and  C_42 
REMARK   23  A    between atoms: N_40  and  C_43 
REMARK   24  A    between atoms: C_42  and  O_69 
REMARK   25  A    between atoms: O_45  and  C_48 
REMARK   26  A    between atoms: C_47  and  C_53 
REMARK   27  A    between atoms: O_49  and  C_52 
REMARK   28  A    between atoms: N_51  and  C_54 
REMARK   29  A    between atoms: N_51  and  C_71 
REMARK   30  A    between atoms: C_53  and  O_61 
REMARK   31  A    between atoms: C_71  and  C_73 
REMARK   32  A    between atoms: C_73  and  C_74 
REMARK   33  A    between atoms: C_73  and  C_83 
REMARK   34  A    between atoms: C_74  and  C_75 
REMARK   35  A    between atoms: C_75  and  C_76 
REMARK   36  A    between atoms: C_75  and  C_87 
REMARK   37  A    between atoms: C_76  and  C_77 
REMARK   38  A    between atoms: C_77  and  C_78 
REMARK   39  A    between atoms: C_77  and  C_91 
REMARK   40  A    between atoms: C_78  and  C_79 
REMARK   41  A    between atoms: C_79  and  C_80 
REMARK   42  A    between atoms: C_79  and  C_95 
REMARK   43  A    between atoms: C_80  and  C_81 
REMARK   44  A    between atoms: C_81  and  C_99 
REMARK   45  A    between atoms: C_83  and  C_84 
REMARK   46  A    between atoms: C_84  and  C_85 
REMARK   47  A    between atoms: C_85  and  N_103 
REMARK   48  A    between atoms: C_87  and  C_88 
REMARK   49  A    between atoms: C_88  and  C_89 
REMARK   50  A    between atoms: C_89  and  N_104 
REMARK   51  A    between atoms: C_91  and  C_92 
REMARK   52  A    between atoms: C_92  and  C_93 
REMARK   53  A    between atoms: C_93  and  N_105 
REMARK   54  A    between atoms: C_95  and  C_96 
REMARK   55  A    between atoms: C_96  and  C_97 
REMARK   56  A    between atoms: C_97  and  N_106 
REMARK   57  A    between atoms: C_99  and  C_100 
REMARK   58  A    between atoms: C_100  and  C_101 
REMARK   59  A    between atoms: C_101  and  N_107 
REMARK   60  A    between atoms: N_126  and  C_129 
REMARK   61  A    between atoms: C_129  and  C_135 
REMARK   62  A    between atoms: C_130  and  C_135 
REMARK   63  A    between atoms: C_130  and  C_142 
REMARK   64  A    between atoms: N_132  and  C_139 
REMARK   65  A    between atoms: C_136  and  C_137 
REMARK   66  A    between atoms: C_136  and  C_146 
REMARK   67  A    between atoms: C_137  and  C_139 
REMARK   68  A    between atoms: N_141  and  C_152 
REMARK   69  A    between atoms: C_142  and  C_153 
REMARK   70  A    between atoms: C_142  and  C_159 
REMARK   71  A    between atoms: C_144  and  C_152 
REMARK   72  A    between atoms: C_144  and  C_156 
REMARK   73  A    between atoms: C_146  and  C_162 
REMARK   74  A    between atoms: C_146  and  C_153 
REMARK   75  A    between atoms: C_148  and  C_156 
REMARK   76  A    between atoms: C_148  and  C_149 
REMARK   77  A    between atoms: C_149  and  C_163 
REMARK   78  A    between atoms: C_150  and  C_161 
REMARK   79  A    between atoms: C_150  and  C_159 
REMARK   80  A    between atoms: C_150  and  C_160 
REMARK   81  A    between atoms: C_151  and  N_157 
REMARK   82  A    between atoms: C_151  and  C_154 
REMARK   83  A    between atoms: C_154  and  C_160 
REMARK   84  A    between atoms: C_162  and  C_163 
REMARK   85  A    between atoms: C_163  and  C_169 
REMARK   86  A    between atoms: C_166  and  C_171 
REMARK   87  A    between atoms: C_166  and  C_169 
REMARK   88  A    between atoms: N_167  and  C_171 
ROOT
HETATM    1  C   UNL     1      20.459  68.689  20.209  1.00  0.00     0.186 C 
HETATM    2  C   UNL     1      20.266  69.210  21.650  1.00  0.00     0.179 C 
HETATM    3  C   UNL     1      21.952  68.446  19.908  1.00  0.00     0.187 C 
HETATM    4  C   UNL     1      22.833  69.617  20.407  1.00  0.00     0.303 C 
HETATM    5  C   UNL     1      22.578  69.898  21.929  1.00  0.00     0.296 C 
HETATM    6  O   UNL     1      21.479  69.123  22.421  1.00  0.00    -0.349 OA
ENDROOT
BRANCH   1   7
HETATM    7  O   UNL     1      19.743  67.453  20.078  1.00  0.00    -0.348 OA
BRANCH   7   8
HETATM    8  C   UNL     1      19.767  66.872  18.765  1.00  0.00     0.296 C 
HETATM    9  O   UNL     1      18.980  67.720  17.933  1.00  0.00    -0.349 OA
HETATM   10  C   UNL     1      18.626  67.213  16.636  1.00  0.00     0.179 C 
HETATM   11  C   UNL     1      18.220  65.725  16.606  1.00  0.00     0.186 C 
HETATM   12  C   UNL     1      18.008  65.165  18.007  1.00  0.00     0.187 C 
HETATM   13  C   UNL     1      19.277  65.385  18.837  1.00  0.00     0.303 C 
BRANCH  10  14
HETATM   14  C   UNL     1      19.779  67.516  15.665  1.00  0.00     0.198 C 
BRANCH  14  15
HETATM   15  O   UNL     1      19.548  66.888  14.404  1.00  0.00    -0.398 OA
HETATM   16  H   UNL     1      20.427  66.696  14.022  1.00  0.00     0.209 HD
ENDBRANCH  14  15
ENDBRANCH  10  14
BRANCH  11  17
HETATM   17  O   UNL     1      16.971  65.581  15.911  1.00  0.00    -0.348 OA
BRANCH  17  18
HETATM   18  C   UNL     1      16.552  64.227  15.777  1.00  0.00     0.296 C 
HETATM   19  O   UNL     1      17.714  63.392  15.687  1.00  0.00    -0.351 OA
HETATM   20  C   UNL     1      17.421  62.012  15.985  1.00  0.00     0.150 C 
HETATM   21  C   UNL     1      16.017  61.627  15.479  1.00  0.00     0.068 C 
HETATM   22  C   UNL     1      15.676  62.454  14.229  1.00  0.00     0.158 C 
HETATM   23  C   UNL     1      15.613  63.990  14.526  1.00  0.00     0.303 C 
BRANCH  20  24
HETATM   24  C   UNL     1      17.687  61.706  17.467  1.00  0.00     0.196 C 
BRANCH  24  25
HETATM   25  O   UNL     1      16.476  61.636  18.215  1.00  0.00    -0.398 OA
HETATM   26  H   UNL     1      16.315  62.533  18.562  1.00  0.00     0.209 HD
ENDBRANCH  24  25
ENDBRANCH  20  24
BRANCH  22  27
HETATM   27  O   UNL     1      16.698  62.182  13.254  1.00  0.00    -0.393 OA
HETATM   28  H   UNL     1      16.534  62.767  12.489  1.00  0.00     0.210 HD
ENDBRANCH  22  27
BRANCH  23  29
HETATM   29  N   UNL     1      16.002  64.797  13.325  1.00  0.00     0.096 N 
HETATM   30  H   UNL     1      16.810  64.322  12.927  1.00  0.00     0.316 HD
BRANCH  29  31
HETATM   31  C   UNL     1      14.972  65.037  12.279  1.00  0.00     0.287 C 
BRANCH  31  32
HETATM   32  C   UNL     1      15.546  65.180  10.776  1.00  0.00     0.044 C 
HETATM   33  C   UNL     1      16.938  65.827  10.832  1.00  0.00     0.025 C 
BRANCH  32  34
HETATM   34  C   UNL     1      14.549  66.016   9.805  1.00  0.00     0.035 C 
BRANCH  34  35
HETATM   35  C   UNL     1      14.434  67.641   9.748  1.00  0.00     0.019 C 
HETATM   36  C   UNL     1      12.943  67.877   9.386  1.00  0.00     0.023 C 
BRANCH  35  37
HETATM   37  C   UNL     1      15.399  68.197   8.568  1.00  0.00     0.033 C 
BRANCH  37  38
HETATM   38  C   UNL     1      15.123  68.243   6.952  1.00  0.00     0.019 C 
HETATM   39  C   UNL     1      16.435  67.974   6.198  1.00  0.00     0.023 C 
BRANCH  38  40
HETATM   40  C   UNL     1      14.631  69.738   6.646  1.00  0.00     0.033 C 
BRANCH  40  41
HETATM   41  C   UNL     1      15.070  71.155   7.313  1.00  0.00     0.019 C 
HETATM   42  C   UNL     1      14.591  72.229   6.298  1.00  0.00     0.023 C 
BRANCH  41  43
HETATM   43  C   UNL     1      14.509  71.499   8.735  1.00  0.00     0.033 C 
BRANCH  43  44
HETATM   44  C   UNL     1      13.052  71.995   9.077  1.00  0.00     0.014 C 
HETATM   45  C   UNL     1      12.786  71.584  10.552  1.00  0.00     0.023 C 
HETATM   46  C   UNL     1      11.935  71.298   8.277  1.00  0.00     0.023 C 
BRANCH  44  47
HETATM   47  C   UNL     1      12.893  73.525   8.901  1.00  0.00     0.136 C 
HETATM   48  O   UNL     1      13.807  74.283   9.240  1.00  0.00    -0.297 OA
BRANCH  47  49
HETATM   49  C   UNL     1      11.577  74.115   8.401  1.00  0.00     0.109 C 
BRANCH  49  50
HETATM   50  C   UNL     1      11.812  75.003   7.170  1.00  0.00     0.279 C 
BRANCH  50  51
HETATM   51  N   UNL     1      11.011  76.246   7.200  1.00  0.00     0.080 N 
HETATM   52  C   UNL     1      10.483  76.526   8.535  1.00  0.00     0.309 C 
HETATM   53  C   UNL     1      11.825  77.383   6.755  1.00  0.00     0.309 C 
ENDBRANCH  50  51
ENDBRANCH  49  50
ENDBRANCH  47  49
ENDBRANCH  44  47
ENDBRANCH  43  44
ENDBRANCH  41  43
BRANCH  41  54
HETATM   54  C   UNL     1      16.632  71.209   7.283  1.00  0.00     0.137 C 
HETATM   55  O   UNL     1      17.310  70.804   8.221  1.00  0.00    -0.297 OA
BRANCH  54  56
HETATM   56  C   UNL     1      17.303  71.961   6.151  1.00  0.00     0.109 C 
BRANCH  56  57
HETATM   57  C   UNL     1      17.931  71.034   5.109  1.00  0.00     0.279 C 
BRANCH  57  58
HETATM   58  N   UNL     1      17.426  71.401   3.769  1.00  0.00     0.080 N 
HETATM   59  C   UNL     1      16.245  70.608   3.420  1.00  0.00     0.309 C 
HETATM   60  C   UNL     1      17.111  72.824   3.687  1.00  0.00     0.309 C 
ENDBRANCH  57  58
ENDBRANCH  56  57
ENDBRANCH  54  56
ENDBRANCH  41  54
ENDBRANCH  40  41
ENDBRANCH  38  40
BRANCH  38  61
HETATM   61  C   UNL     1      14.074  67.255   6.374  1.00  0.00     0.137 C 
HETATM   62  O   UNL     1      14.311  66.041   6.373  1.00  0.00    -0.297 OA
BRANCH  61  63
HETATM   63  C   UNL     1      12.745  67.724   5.835  1.00  0.00     0.109 C 
BRANCH  63  64
HETATM   64  C   UNL     1      11.668  66.629   5.789  1.00  0.00     0.279 C 
BRANCH  64  65
HETATM   65  N   UNL     1      10.308  67.203   5.711  1.00  0.00     0.080 N 
HETATM   66  C   UNL     1       9.287  66.207   6.048  1.00  0.00     0.309 C 
HETATM   67  C   UNL     1      10.191  68.344   6.624  1.00  0.00     0.309 C 
ENDBRANCH  64  65
ENDBRANCH  63  64
ENDBRANCH  61  63
ENDBRANCH  38  61
ENDBRANCH  37  38
ENDBRANCH  35  37
BRANCH  35  68
HETATM   68  C   UNL     1      14.775  68.465  11.026  1.00  0.00     0.137 C 
HETATM   69  O   UNL     1      15.833  69.106  11.048  1.00  0.00    -0.297 OA
BRANCH  68  70
HETATM   70  C   UNL     1      13.865  68.483  12.263  1.00  0.00     0.109 C 
BRANCH  70  71
HETATM   71  C   UNL     1      14.654  68.342  13.588  1.00  0.00     0.279 C 
BRANCH  71  72
HETATM   72  N   UNL     1      13.923  68.289  14.871  1.00  0.00     0.080 N 
HETATM   73  C   UNL     1      12.952  69.360  15.022  1.00  0.00     0.309 C 
HETATM   74  C   UNL     1      13.211  67.005  14.967  1.00  0.00     0.309 C 
ENDBRANCH  71  72
ENDBRANCH  70  71
ENDBRANCH  68  70
ENDBRANCH  35  68
ENDBRANCH  34  35
ENDBRANCH  32  34
BRANCH  32  75
HETATM   75  C   UNL     1      15.533  63.722  10.253  1.00  0.00     0.138 C 
HETATM   76  O   UNL     1      16.405  62.919  10.609  1.00  0.00    -0.297 OA
BRANCH  75  77
HETATM   77  C   UNL     1      14.548  63.285   9.190  1.00  0.00     0.109 C 
BRANCH  77  78
HETATM   78  C   UNL     1      14.794  61.825   8.855  1.00  0.00     0.279 C 
BRANCH  78  79
HETATM   79  N   UNL     1      15.380  61.589   7.527  1.00  0.00     0.080 N 
HETATM   80  C   UNL     1      14.855  62.532   6.539  1.00  0.00     0.309 C 
HETATM   81  C   UNL     1      15.098  60.215   7.096  1.00  0.00     0.309 C 
ENDBRANCH  78  79
ENDBRANCH  77  78
ENDBRANCH  75  77
ENDBRANCH  32  75
ENDBRANCH  31  32
ENDBRANCH  29  31
ENDBRANCH  23  29
ENDBRANCH  17  18
ENDBRANCH  11  17
BRANCH  12  82
HETATM   82  O   UNL     1      16.862  65.767  18.626  1.00  0.00    -0.391 OA
HETATM   83  H   UNL     1      16.096  65.265  18.278  1.00  0.00     0.210 HD
ENDBRANCH  12  82
BRANCH  13  84
HETATM   84  N   UNL     1      19.091  64.831  20.194  1.00  0.00     0.090 N 
HETATM   85  H   UNL     1      18.658  63.910  20.061  1.00  0.00     0.313 HD
HETATM   86  H   UNL     1      18.359  65.376  20.669  1.00  0.00     0.313 HD
ENDBRANCH  13  84
ENDBRANCH   7   8
ENDBRANCH   1   7
BRANCH   2  87
HETATM   87  C   UNL     1      19.668  70.629  21.647  1.00  0.00     0.198 C 
BRANCH  87  88
HETATM   88  O   UNL     1      19.191  70.995  20.360  1.00  0.00    -0.398 OA
HETATM   89  H   UNL     1      19.021  71.954  20.359  1.00  0.00     0.209 HD
ENDBRANCH  87  88
ENDBRANCH   2  87
BRANCH   3  90
HETATM   90  O   UNL     1      22.397  67.211  20.492  1.00  0.00    -0.391 OA
HETATM   91  H   UNL     1      22.624  67.404  21.425  1.00  0.00     0.210 HD
ENDBRANCH   3  90
BRANCH   4  92
HETATM   92  N   UNL     1      24.262  69.391  20.088  1.00  0.00     0.090 N 
HETATM   93  H   UNL     1      24.797  69.341  20.959  1.00  0.00     0.313 HD
HETATM   94  H   UNL     1      24.602  70.264  19.665  1.00  0.00     0.313 HD
ENDBRANCH   4  92
BRANCH   5  95
HETATM   95  O   UNL     1      23.723  69.531  22.728  1.00  0.00    -0.348 OA
BRANCH  95  96
HETATM   96  C   UNL     1      23.710  69.963  24.120  1.00  0.00     0.186 C 
HETATM   97  C   UNL     1      22.987  68.927  24.999  1.00  0.00     0.180 C 
HETATM   98  O   UNL     1      23.792  68.448  26.075  1.00  0.00    -0.349 OA
HETATM   99  C   UNL     1      24.498  69.413  26.851  1.00  0.00     0.286 C 
HETATM  100  C   UNL     1      25.468  70.383  26.042  1.00  0.00     0.167 C 
HETATM  101  C   UNL     1      25.209  70.084  24.536  1.00  0.00     0.177 C 
BRANCH  97 102
HETATM  102  C   UNL     1      21.647  69.423  25.563  1.00  0.00     0.198 C 
BRANCH 102 103
HETATM  103  O   UNL     1      21.315  70.695  25.009  1.00  0.00    -0.398 OA
HETATM  104  H   UNL     1      20.921  71.236  25.721  1.00  0.00     0.209 HD
ENDBRANCH 102 103
ENDBRANCH  97 102
BRANCH  99 105
HETATM  105  O   UNL     1      25.251  68.616  27.763  1.00  0.00    -0.348 OA
BRANCH 105 106
HETATM  106  C   UNL     1      24.809  67.275  27.916  1.00  0.00     0.186 C 
HETATM  107  C   UNL     1      26.016  66.346  28.160  1.00  0.00     0.176 C 
HETATM  108  O   UNL     1      25.689  65.232  29.026  1.00  0.00    -0.379 OA
HETATM  109  C   UNL     1      24.359  64.737  28.841  1.00  0.00     0.206 C 
HETATM  110  C   UNL     1      23.298  65.781  29.253  1.00  0.00     0.272 C 
HETATM  111  C   UNL     1      23.865  67.213  29.131  1.00  0.00     0.184 C 
BRANCH 107 112
HETATM  112  C   UNL     1      26.630  65.804  26.864  1.00  0.00     0.198 C 
BRANCH 112 113
HETATM  113  O   UNL     1      26.137  66.541  25.746  1.00  0.00    -0.398 OA
HETATM  114  H   UNL     1      25.829  65.879  25.097  1.00  0.00     0.209 HD
ENDBRANCH 112 113
ENDBRANCH 107 112
BRANCH 110 115
HETATM  115  N   UNL     1      22.783  65.532  30.613  1.00  0.00     0.087 N 
HETATM  116  H   UNL     1      23.550  65.679  31.274  1.00  0.00     0.313 HD
HETATM  117  H   UNL     1      22.611  64.525  30.694  1.00  0.00     0.313 HD
ENDBRANCH 110 115
BRANCH 111 118
HETATM  118  O   UNL     1      24.530  67.588  30.353  1.00  0.00    -0.391 OA
HETATM  119  H   UNL     1      25.075  66.832  30.637  1.00  0.00     0.210 HD
ENDBRANCH 111 118
ENDBRANCH 105 106
ENDBRANCH  99 105
BRANCH 100 120
HETATM  120  N   UNL     1      26.889  70.194  26.501  1.00  0.00    -0.389 N 
HETATM  121  H   UNL     1      27.474  70.640  25.787  1.00  0.00     0.159 HD
BRANCH 120 122
HETATM  122  C   UNL     1      27.383  70.209  27.884  1.00  0.00     0.073 C 
BRANCH 122 123
HETATM  123  C   UNL     1      28.739  70.970  28.284  1.00  0.00     0.049 C 
HETATM  124  C   UNL     1      29.801  70.462  27.294  1.00  0.00     0.029 C 
BRANCH 123 125
HETATM  125  C   UNL     1      29.321  70.924  29.819  1.00  0.00     0.039 C 
BRANCH 125 126
HETATM  126  C   UNL     1      30.043  69.581  30.485  1.00  0.00     0.019 C 
HETATM  127  C   UNL     1      29.727  69.792  31.991  1.00  0.00     0.023 C 
BRANCH 126 128
HETATM  128  C   UNL     1      29.537  68.174  30.040  1.00  0.00     0.137 C 
HETATM  129  O   UNL     1      30.094  67.630  29.079  1.00  0.00    -0.297 OA
BRANCH 128 130
HETATM  130  C   UNL     1      28.360  67.465  30.738  1.00  0.00     0.109 C 
BRANCH 130 131
HETATM  131  C   UNL     1      28.577  65.943  30.899  1.00  0.00     0.279 C 
BRANCH 131 132
HETATM  132  N   UNL     1      27.932  65.226  32.017  1.00  0.00     0.080 N 
HETATM  133  C   UNL     1      27.610  63.859  31.589  1.00  0.00     0.309 C 
HETATM  134  C   UNL     1      26.710  65.861  32.479  1.00  0.00     0.309 C 
ENDBRANCH 131 132
ENDBRANCH 130 131
ENDBRANCH 128 130
ENDBRANCH 126 128
BRANCH 126 135
HETATM  135  C   UNL     1      31.669  69.522  30.260  1.00  0.00     0.033 C 
BRANCH 135 136
HETATM  136  C   UNL     1      32.838  69.117  31.385  1.00  0.00     0.019 C 
HETATM  137  C   UNL     1      32.963  70.264  32.403  1.00  0.00     0.023 C 
BRANCH 136 138
HETATM  138  C   UNL     1      32.650  67.812  32.211  1.00  0.00     0.137 C 
HETATM  139  O   UNL     1      32.169  66.809  31.670  1.00  0.00    -0.297 OA
BRANCH 138 140
HETATM  140  C   UNL     1      33.051  67.717  33.663  1.00  0.00     0.109 C 
BRANCH 140 141
HETATM  141  C   UNL     1      34.096  66.630  33.970  1.00  0.00     0.279 C 
BRANCH 141 142
HETATM  142  N   UNL     1      35.399  66.919  33.333  1.00  0.00     0.080 N 
HETATM  143  C   UNL     1      36.331  65.809  33.558  1.00  0.00     0.309 C 
HETATM  144  C   UNL     1      35.988  68.157  33.849  1.00  0.00     0.309 C 
ENDBRANCH 141 142
ENDBRANCH 140 141
ENDBRANCH 138 140
ENDBRANCH 136 138
BRANCH 136 145
HETATM  145  C   UNL     1      34.230  68.976  30.591  1.00  0.00     0.033 C 
BRANCH 145 146
HETATM  146  C   UNL     1      34.525  68.672  29.001  1.00  0.00     0.019 C 
HETATM  147  C   UNL     1      33.674  67.413  28.681  1.00  0.00     0.023 C 
BRANCH 146 148
HETATM  148  C   UNL     1      34.202  69.791  27.945  1.00  0.00     0.033 C 
BRANCH 148 149
HETATM  149  C   UNL     1      34.872  71.221  27.843  1.00  0.00     0.014 C 
HETATM  150  C   UNL     1      34.163  71.954  26.669  1.00  0.00     0.023 C 
HETATM  151  C   UNL     1      36.360  71.205  27.436  1.00  0.00     0.023 C 
BRANCH 149 152
HETATM  152  C   UNL     1      34.741  72.043  29.151  1.00  0.00     0.136 C 
HETATM  153  O   UNL     1      33.623  72.335  29.586  1.00  0.00    -0.297 OA
BRANCH 152 154
HETATM  154  C   UNL     1      35.983  72.580  29.858  1.00  0.00     0.109 C 
BRANCH 154 155
HETATM  155  C   UNL     1      36.347  71.706  31.070  1.00  0.00     0.279 C 
BRANCH 155 156
HETATM  156  N   UNL     1      36.814  72.497  32.230  1.00  0.00     0.080 N 
HETATM  157  C   UNL     1      37.672  71.715  33.121  1.00  0.00     0.309 C 
HETATM  158  C   UNL     1      37.550  73.682  31.770  1.00  0.00     0.309 C 
ENDBRANCH 155 156
ENDBRANCH 154 155
ENDBRANCH 152 154
ENDBRANCH 149 152
ENDBRANCH 148 149
ENDBRANCH 146 148
BRANCH 146 159
HETATM  159  C   UNL     1      36.016  68.217  28.891  1.00  0.00     0.137 C 
HETATM  160  O   UNL     1      36.497  67.831  27.821  1.00  0.00    -0.297 OA
BRANCH 159 161
HETATM  161  C   UNL     1      36.821  68.065  30.163  1.00  0.00     0.109 C 
BRANCH 161 162
HETATM  162  C   UNL     1      37.668  66.790  30.197  1.00  0.00     0.279 C 
BRANCH 162 163
HETATM  163  N   UNL     1      39.083  67.157  30.423  1.00  0.00     0.080 N 
HETATM  164  C   UNL     1      39.989  66.092  30.004  1.00  0.00     0.309 C 
HETATM  165  C   UNL     1      39.320  67.485  31.831  1.00  0.00     0.309 C 
ENDBRANCH 162 163
ENDBRANCH 161 162
ENDBRANCH 159 161
ENDBRANCH 146 159
ENDBRANCH 145 146
ENDBRANCH 136 145
ENDBRANCH 135 136
ENDBRANCH 126 135
ENDBRANCH 125 126
ENDBRANCH 123 125
BRANCH 123 166
HETATM  166  C   UNL     1      28.264  72.439  28.094  1.00  0.00     0.141 C 
HETATM  167  O   UNL     1      29.026  73.315  27.664  1.00  0.00    -0.297 OA
BRANCH 166 168
HETATM  168  C   UNL     1      26.886  72.855  28.550  1.00  0.00     0.110 C 
BRANCH 168 169
HETATM  169  C   UNL     1      27.005  74.035  29.487  1.00  0.00     0.279 C 
BRANCH 169 170
HETATM  170  N   UNL     1      25.749  74.472  30.113  1.00  0.00     0.080 N 
HETATM  171  C   UNL     1      25.813  74.342  31.570  1.00  0.00     0.309 C 
HETATM  172  C   UNL     1      24.642  73.650  29.613  1.00  0.00     0.309 C 
ENDBRANCH 169 170
ENDBRANCH 168 169
ENDBRANCH 166 168
ENDBRANCH 123 166
ENDBRANCH 122 123
ENDBRANCH 120 122
ENDBRANCH 100 120
BRANCH 101 173
HETATM  173  O   UNL     1      25.883  68.858  24.176  1.00  0.00    -0.391 OA
HETATM  174  H   UNL     1      25.952  68.859  23.201  1.00  0.00     0.210 HD
ENDBRANCH 101 173
ENDBRANCH  95  96
ENDBRANCH   5  95
TORSDOF 88
ENDMDL
MODEL 3
REMARK VINA RESULT:      -4.4      5.433     11.960
REMARK WARNING: 32 MAX_TORS EXCEEDED!!!
REMARK  88 active torsions:
REMARK  status: ('A' for Active; 'I' for Inactive)
REMARK    1  A    between atoms: C_1  and  O_28 
REMARK    2  A    between atoms: C_2  and  C_6 
REMARK    3  A    between atoms: C_3  and  O_8 
REMARK    4  A    between atoms: C_4  and  N_10 
REMARK    5  A    between atoms: C_5  and  O_11 
REMARK    6  A    between atoms: C_6  and  O_65 
REMARK    7  A    between atoms: O_11  and  C_18 
REMARK    8  A    between atoms: O_13  and  C_16 
REMARK    9  A    between atoms: C_15  and  C_21 
REMARK   10  A    between atoms: O_17  and  C_20 
REMARK   11  A    between atoms: O_17  and  C_39 
REMARK   12  A    between atoms: N_19  and  C_22 
REMARK   13  A    between atoms: N_19  and  C_161 
REMARK   14  A    between atoms: C_21  and  O_67 
REMARK   15  A    between atoms: O_24  and  C_27 
REMARK   16  A    between atoms: C_26  and  C_32 
REMARK   17  A    between atoms: O_28  and  C_31 
REMARK   18  A    between atoms: C_29  and  O_49 
REMARK   19  A    between atoms: N_30  and  C_33 
REMARK   20  A    between atoms: C_32  and  O_63 
REMARK   21  A    between atoms: O_35  and  C_38 
REMARK   22  A    between atoms: C_37  and  C_42 
REMARK   23  A    between atoms: N_40  and  C_43 
REMARK   24  A    between atoms: C_42  and  O_69 
REMARK   25  A    between atoms: O_45  and  C_48 
REMARK   26  A    between atoms: C_47  and  C_53 
REMARK   27  A    between atoms: O_49  and  C_52 
REMARK   28  A    between atoms: N_51  and  C_54 
REMARK   29  A    between atoms: N_51  and  C_71 
REMARK   30  A    between atoms: C_53  and  O_61 
REMARK   31  A    between atoms: C_71  and  C_73 
REMARK   32  A    between atoms: C_73  and  C_74 
REMARK   33  A    between atoms: C_73  and  C_83 
REMARK   34  A    between atoms: C_74  and  C_75 
REMARK   35  A    between atoms: C_75  and  C_76 
REMARK   36  A    between atoms: C_75  and  C_87 
REMARK   37  A    between atoms: C_76  and  C_77 
REMARK   38  A    between atoms: C_77  and  C_78 
REMARK   39  A    between atoms: C_77  and  C_91 
REMARK   40  A    between atoms: C_78  and  C_79 
REMARK   41  A    between atoms: C_79  and  C_80 
REMARK   42  A    between atoms: C_79  and  C_95 
REMARK   43  A    between atoms: C_80  and  C_81 
REMARK   44  A    between atoms: C_81  and  C_99 
REMARK   45  A    between atoms: C_83  and  C_84 
REMARK   46  A    between atoms: C_84  and  C_85 
REMARK   47  A    between atoms: C_85  and  N_103 
REMARK   48  A    between atoms: C_87  and  C_88 
REMARK   49  A    between atoms: C_88  and  C_89 
REMARK   50  A    between atoms: C_89  and  N_104 
REMARK   51  A    between atoms: C_91  and  C_92 
REMARK   52  A    between atoms: C_92  and  C_93 
REMARK   53  A    between atoms: C_93  and  N_105 
REMARK   54  A    between atoms: C_95  and  C_96 
REMARK   55  A    between atoms: C_96  and  C_97 
REMARK   56  A    between atoms: C_97  and  N_106 
REMARK   57  A    between atoms: C_99  and  C_100 
REMARK   58  A    between atoms: C_100  and  C_101 
REMARK   59  A    between atoms: C_101  and  N_107 
REMARK   60  A    between atoms: N_126  and  C_129 
REMARK   61  A    between atoms: C_129  and  C_135 
REMARK   62  A    between atoms: C_130  and  C_135 
REMARK   63  A    between atoms: C_130  and  C_142 
REMARK   64  A    between atoms: N_132  and  C_139 
REMARK   65  A    between atoms: C_136  and  C_137 
REMARK   66  A    between atoms: C_136  and  C_146 
REMARK   67  A    between atoms: C_137  and  C_139 
REMARK   68  A    between atoms: N_141  and  C_152 
REMARK   69  A    between atoms: C_142  and  C_153 
REMARK   70  A    between atoms: C_142  and  C_159 
REMARK   71  A    between atoms: C_144  and  C_152 
REMARK   72  A    between atoms: C_144  and  C_156 
REMARK   73  A    between atoms: C_146  and  C_162 
REMARK   74  A    between atoms: C_146  and  C_153 
REMARK   75  A    between atoms: C_148  and  C_156 
REMARK   76  A    between atoms: C_148  and  C_149 
REMARK   77  A    between atoms: C_149  and  C_163 
REMARK   78  A    between atoms: C_150  and  C_161 
REMARK   79  A    between atoms: C_150  and  C_159 
REMARK   80  A    between atoms: C_150  and  C_160 
REMARK   81  A    between atoms: C_151  and  N_157 
REMARK   82  A    between atoms: C_151  and  C_154 
REMARK   83  A    between atoms: C_154  and  C_160 
REMARK   84  A    between atoms: C_162  and  C_163 
REMARK   85  A    between atoms: C_163  and  C_169 
REMARK   86  A    between atoms: C_166  and  C_171 
REMARK   87  A    between atoms: C_166  and  C_169 
REMARK   88  A    between atoms: N_167  and  C_171 
ROOT
HETATM    1  C   UNL     1      21.497  70.265  23.693  1.00  0.00     0.186 C 
HETATM    2  C   UNL     1      22.153  69.207  22.778  1.00  0.00     0.179 C 
HETATM    3  C   UNL     1      19.959  70.199  23.594  1.00  0.00     0.187 C 
HETATM    4  C   UNL     1      19.485  70.078  22.126  1.00  0.00     0.303 C 
HETATM    5  C   UNL     1      20.173  68.861  21.415  1.00  0.00     0.296 C 
HETATM    6  O   UNL     1      21.186  68.283  22.246  1.00  0.00    -0.349 OA
ENDROOT
BRANCH   1   7
HETATM    7  O   UNL     1      21.896  70.001  25.045  1.00  0.00    -0.348 OA
BRANCH   7   8
HETATM    8  C   UNL     1      23.251  70.357  25.360  1.00  0.00     0.296 C 
HETATM    9  O   UNL     1      23.992  69.140  25.391  1.00  0.00    -0.349 OA
HETATM   10  C   UNL     1      25.315  69.197  25.948  1.00  0.00     0.179 C 
HETATM   11  C   UNL     1      25.452  70.068  27.215  1.00  0.00     0.186 C 
HETATM   12  C   UNL     1      24.094  70.467  27.780  1.00  0.00     0.187 C 
HETATM   13  C   UNL     1      23.284  71.180  26.693  1.00  0.00     0.303 C 
BRANCH  10  14
HETATM   14  C   UNL     1      26.290  69.632  24.842  1.00  0.00     0.198 C 
BRANCH  14  15
HETATM   15  O   UNL     1      26.788  68.494  24.139  1.00  0.00    -0.398 OA
HETATM   16  H   UNL     1      26.952  68.782  23.220  1.00  0.00     0.209 HD
ENDBRANCH  14  15
ENDBRANCH  10  14
BRANCH  11  17
HETATM   17  O   UNL     1      26.122  69.320  28.243  1.00  0.00    -0.348 OA
BRANCH  17  18
HETATM   18  C   UNL     1      26.435  67.986  27.857  1.00  0.00     0.296 C 
HETATM   19  O   UNL     1      26.137  67.108  28.949  1.00  0.00    -0.351 OA
HETATM   20  C   UNL     1      26.002  65.736  28.528  1.00  0.00     0.150 C 
HETATM   21  C   UNL     1      26.980  65.415  27.382  1.00  0.00     0.068 C 
HETATM   22  C   UNL     1      28.245  66.276  27.527  1.00  0.00     0.158 C 
HETATM   23  C   UNL     1      27.943  67.809  27.411  1.00  0.00     0.303 C 
BRANCH  20  24
HETATM   24  C   UNL     1      24.532  65.394  28.247  1.00  0.00     0.196 C 
BRANCH  24  25
HETATM   25  O   UNL     1      23.820  66.517  27.734  1.00  0.00    -0.398 OA
HETATM   26  H   UNL     1      23.572  67.060  28.505  1.00  0.00     0.209 HD
ENDBRANCH  24  25
ENDBRANCH  20  24
BRANCH  22  27
HETATM   27  O   UNL     1      28.807  65.981  28.817  1.00  0.00    -0.393 OA
HETATM   28  H   UNL     1      29.533  65.341  28.680  1.00  0.00     0.210 HD
ENDBRANCH  22  27
BRANCH  23  29
HETATM   29  N   UNL     1      28.906  68.621  28.221  1.00  0.00     0.096 N 
HETATM   30  H   UNL     1      29.121  68.052  29.040  1.00  0.00     0.316 HD
BRANCH  29  31
HETATM   31  C   UNL     1      30.159  69.082  27.565  1.00  0.00     0.287 C 
BRANCH  31  32
HETATM   32  C   UNL     1      30.652  70.558  27.996  1.00  0.00     0.044 C 
HETATM   33  C   UNL     1      31.909  70.920  27.191  1.00  0.00     0.025 C 
BRANCH  32  34
HETATM   34  C   UNL     1      30.920  70.686  29.592  1.00  0.00     0.035 C 
BRANCH  34  35
HETATM   35  C   UNL     1      31.476  69.491  30.551  1.00  0.00     0.019 C 
HETATM   36  C   UNL     1      32.272  70.257  31.643  1.00  0.00     0.023 C 
BRANCH  35  37
HETATM   37  C   UNL     1      32.467  68.539  29.688  1.00  0.00     0.033 C 
BRANCH  37  38
HETATM   38  C   UNL     1      34.084  68.322  29.855  1.00  0.00     0.019 C 
HETATM   39  C   UNL     1      34.532  68.828  31.236  1.00  0.00     0.023 C 
BRANCH  38  40
HETATM   40  C   UNL     1      34.754  69.229  28.715  1.00  0.00     0.033 C 
BRANCH  40  41
HETATM   41  C   UNL     1      36.176  70.020  28.689  1.00  0.00     0.019 C 
HETATM   42  C   UNL     1      36.190  70.752  27.319  1.00  0.00     0.023 C 
BRANCH  41  43
HETATM   43  C   UNL     1      36.460  71.051  29.832  1.00  0.00     0.033 C 
BRANCH  43  44
HETATM   44  C   UNL     1      35.675  72.391  30.107  1.00  0.00     0.014 C 
HETATM   45  C   UNL     1      35.437  72.450  31.641  1.00  0.00     0.023 C 
HETATM   46  C   UNL     1      34.261  72.440  29.497  1.00  0.00     0.023 C 
BRANCH  44  47
HETATM   47  C   UNL     1      36.454  73.640  29.627  1.00  0.00     0.136 C 
HETATM   48  O   UNL     1      37.357  73.521  28.792  1.00  0.00    -0.297 OA
BRANCH  47  49
HETATM   49  C   UNL     1      36.185  75.007  30.250  1.00  0.00     0.109 C 
BRANCH  49  50
HETATM   50  C   UNL     1      37.458  75.568  30.902  1.00  0.00     0.279 C 
BRANCH  50  51
HETATM   51  N   UNL     1      38.163  76.539  30.039  1.00  0.00     0.080 N 
HETATM   52  C   UNL     1      37.241  77.274  29.172  1.00  0.00     0.309 C 
HETATM   53  C   UNL     1      38.916  77.494  30.861  1.00  0.00     0.309 C 
ENDBRANCH  50  51
ENDBRANCH  49  50
ENDBRANCH  47  49
ENDBRANCH  44  47
ENDBRANCH  43  44
ENDBRANCH  41  43
BRANCH  41  54
HETATM   54  C   UNL     1      37.299  68.935  28.601  1.00  0.00     0.137 C 
HETATM   55  O   UNL     1      37.348  68.130  27.676  1.00  0.00    -0.297 OA
BRANCH  54  56
HETATM   56  C   UNL     1      38.221  68.758  29.790  1.00  0.00     0.109 C 
BRANCH  56  57
HETATM   57  C   UNL     1      39.699  68.901  29.425  1.00  0.00     0.279 C 
BRANCH  57  58
HETATM   58  N   UNL     1      39.961  70.296  29.009  1.00  0.00     0.080 N 
HETATM   59  C   UNL     1      40.710  71.018  30.041  1.00  0.00     0.309 C 
HETATM   60  C   UNL     1      40.683  70.350  27.742  1.00  0.00     0.309 C 
ENDBRANCH  57  58
ENDBRANCH  56  57
ENDBRANCH  54  56
ENDBRANCH  41  54
ENDBRANCH  40  41
ENDBRANCH  38  40
BRANCH  38  61
HETATM   61  C   UNL     1      34.634  66.877  29.716  1.00  0.00     0.137 C 
HETATM   62  O   UNL     1      34.302  66.186  28.746  1.00  0.00    -0.297 OA
BRANCH  61  63
HETATM   63  C   UNL     1      35.594  66.287  30.720  1.00  0.00     0.109 C 
BRANCH  63  64
HETATM   64  C   UNL     1      35.011  65.120  31.530  1.00  0.00     0.279 C 
BRANCH  64  65
HETATM   65  N   UNL     1      35.796  64.857  32.754  1.00  0.00     0.080 N 
HETATM   66  C   UNL     1      35.884  66.049  33.601  1.00  0.00     0.309 C 
HETATM   67  C   UNL     1      35.185  63.764  33.518  1.00  0.00     0.309 C 
ENDBRANCH  64  65
ENDBRANCH  63  64
ENDBRANCH  61  63
ENDBRANCH  38  61
ENDBRANCH  37  38
ENDBRANCH  35  37
BRANCH  35  68
HETATM   68  C   UNL     1      30.451  68.547  31.250  1.00  0.00     0.137 C 
HETATM   69  O   UNL     1      30.308  67.402  30.805  1.00  0.00    -0.297 OA
BRANCH  68  70
HETATM   70  C   UNL     1      29.594  68.999  32.441  1.00  0.00     0.109 C 
BRANCH  70  71
HETATM   71  C   UNL     1      28.089  68.689  32.247  1.00  0.00     0.279 C 
BRANCH  71  72
HETATM   72  N   UNL     1      27.161  69.777  31.876  1.00  0.00     0.080 N 
HETATM   73  C   UNL     1      25.787  69.330  31.721  1.00  0.00     0.309 C 
HETATM   74  C   UNL     1      27.193  70.815  32.918  1.00  0.00     0.309 C 
ENDBRANCH  71  72
ENDBRANCH  70  71
ENDBRANCH  68  70
ENDBRANCH  35  68
ENDBRANCH  34  35
ENDBRANCH  32  34
BRANCH  32  75
HETATM   75  C   UNL     1      29.417  71.445  27.696  1.00  0.00     0.138 C 
HETATM   76  O   UNL     1      28.831  71.359  26.609  1.00  0.00    -0.297 OA
BRANCH  75  77
HETATM   77  C   UNL     1      28.985  72.530  28.657  1.00  0.00     0.109 C 
BRANCH  77  78
HETATM   78  C   UNL     1      27.552  72.924  28.352  1.00  0.00     0.279 C 
BRANCH  78  79
HETATM   79  N   UNL     1      26.974  73.910  29.277  1.00  0.00     0.080 N 
HETATM   80  C   UNL     1      27.578  73.811  30.606  1.00  0.00     0.309 C 
HETATM   81  C   UNL     1      25.525  73.708  29.378  1.00  0.00     0.309 C 
ENDBRANCH  78  79
ENDBRANCH  77  78
ENDBRANCH  75  77
ENDBRANCH  32  75
ENDBRANCH  31  32
ENDBRANCH  29  31
ENDBRANCH  23  29
ENDBRANCH  17  18
ENDBRANCH  11  17
BRANCH  12  82
HETATM   82  O   UNL     1      23.399  69.320  28.289  1.00  0.00    -0.391 OA
HETATM   83  H   UNL     1      23.346  68.702  27.532  1.00  0.00     0.210 HD
ENDBRANCH  12  82
BRANCH  13  84
HETATM   84  N   UNL     1      21.971  71.589  27.232  1.00  0.00     0.090 N 
HETATM   85  H   UNL     1      21.758  72.490  26.791  1.00  0.00     0.313 HD
HETATM   86  H   UNL     1      22.089  71.828  28.225  1.00  0.00     0.313 HD
ENDBRANCH  13  84
ENDBRANCH   7   8
ENDBRANCH   1   7
BRANCH   2  87
HETATM   87  C   UNL     1      22.998  69.878  21.679  1.00  0.00     0.198 C 
BRANCH  87  88
HETATM   88  O   UNL     1      24.163  69.121  21.378  1.00  0.00    -0.398 OA
HETATM   89  H   UNL     1      24.003  68.632  20.551  1.00  0.00     0.209 HD
ENDBRANCH  87  88
ENDBRANCH   2  87
BRANCH   3  90
HETATM   90  O   UNL     1      19.444  69.103  24.369  1.00  0.00    -0.391 OA
HETATM   91  H   UNL     1      18.563  68.885  24.001  1.00  0.00     0.210 HD
ENDBRANCH   3  90
BRANCH   4  92
HETATM   92  N   UNL     1      18.006  70.044  22.037  1.00  0.00     0.090 N 
HETATM   93  H   UNL     1      17.713  69.142  21.654  1.00  0.00     0.313 HD
HETATM   94  H   UNL     1      17.750  70.701  21.288  1.00  0.00     0.313 HD
ENDBRANCH   4  92
BRANCH   5  95
HETATM   95  O   UNL     1      19.223  67.809  21.142  1.00  0.00    -0.348 OA
BRANCH  95  96
HETATM   96  C   UNL     1      19.206  67.286  19.782  1.00  0.00     0.186 C 
HETATM   97  C   UNL     1      19.688  65.824  19.761  1.00  0.00     0.180 C 
HETATM   98  O   UNL     1      18.742  64.931  19.175  1.00  0.00    -0.349 OA
HETATM   99  C   UNL     1      18.147  65.319  17.939  1.00  0.00     0.286 C 
HETATM  100  C   UNL     1      17.404  66.729  17.935  1.00  0.00     0.167 C 
HETATM  101  C   UNL     1      17.719  67.378  19.315  1.00  0.00     0.177 C 
BRANCH  97 102
HETATM  102  C   UNL     1      21.047  65.633  19.069  1.00  0.00     0.198 C 
BRANCH 102 103
HETATM  103  O   UNL     1      21.385  66.792  18.308  1.00  0.00    -0.398 OA
HETATM  104  H   UNL     1      21.490  66.515  17.377  1.00  0.00     0.209 HD
ENDBRANCH 102 103
ENDBRANCH  97 102
BRANCH  99 105
HETATM  105  O   UNL     1      17.212  64.273  17.681  1.00  0.00    -0.348 OA
BRANCH 105 106
HETATM  106  C   UNL     1      17.317  63.134  18.522  1.00  0.00     0.186 C 
HETATM  107  C   UNL     1      15.927  62.751  19.069  1.00  0.00     0.176 C 
HETATM  108  O   UNL     1      15.782  61.323  19.258  1.00  0.00    -0.379 OA
HETATM  109  C   UNL     1      16.985  60.679  19.690  1.00  0.00     0.206 C 
HETATM  110  C   UNL     1      18.088  60.746  18.610  1.00  0.00     0.272 C 
HETATM  111  C   UNL     1      17.874  61.967  17.687  1.00  0.00     0.184 C 
BRANCH 107 112
HETATM  112  C   UNL     1      15.580  63.463  20.383  1.00  0.00     0.198 C 
BRANCH 112 113
HETATM  113  O   UNL     1      16.750  64.070  20.931  1.00  0.00    -0.398 OA
HETATM  114  H   UNL     1      17.511  63.616  20.521  1.00  0.00     0.209 HD
ENDBRANCH 112 113
ENDBRANCH 107 112
BRANCH 110 115
HETATM  115  N   UNL     1      18.164  59.499  17.827  1.00  0.00     0.087 N 
HETATM  116  H   UNL     1      17.960  59.725  16.850  1.00  0.00     0.313 HD
HETATM  117  H   UNL     1      17.360  58.922  18.093  1.00  0.00     0.313 HD
ENDBRANCH 110 115
BRANCH 111 118
HETATM  118  O   UNL     1      17.000  61.616  16.597  1.00  0.00    -0.391 OA
HETATM  119  H   UNL     1      16.111  61.953  16.811  1.00  0.00     0.210 HD
ENDBRANCH 111 118
ENDBRANCH 105 106
ENDBRANCH  99 105
BRANCH 100 120
HETATM  120  N   UNL     1      15.942  66.543  17.630  1.00  0.00    -0.389 N 
HETATM  121  H   UNL     1      15.477  66.459  18.540  1.00  0.00     0.159 HD
BRANCH 120 122
HETATM  122  C   UNL     1      15.180  67.160  16.536  1.00  0.00     0.073 C 
BRANCH 122 123
HETATM  123  C   UNL     1      13.576  67.222  16.560  1.00  0.00     0.049 C 
HETATM  124  C   UNL     1      13.124  65.891  17.183  1.00  0.00     0.029 C 
BRANCH 123 125
HETATM  125  C   UNL     1      12.716  67.535  15.196  1.00  0.00     0.039 C 
BRANCH 125 126
HETATM  126  C   UNL     1      13.393  67.581  13.677  1.00  0.00     0.019 C 
HETATM  127  C   UNL     1      14.435  68.720  13.852  1.00  0.00     0.023 C 
BRANCH 126 128
HETATM  128  C   UNL     1      14.108  66.299  13.148  1.00  0.00     0.137 C 
HETATM  129  O   UNL     1      13.415  65.307  12.893  1.00  0.00    -0.297 OA
BRANCH 128 130
HETATM  130  C   UNL     1      15.637  66.227  12.966  1.00  0.00     0.109 C 
BRANCH 130 131
HETATM  131  C   UNL     1      16.253  64.920  13.517  1.00  0.00     0.279 C 
BRANCH 131 132
HETATM  132  N   UNL     1      17.060  64.060  12.628  1.00  0.00     0.080 N 
HETATM  133  C   UNL     1      16.297  63.783  11.405  1.00  0.00     0.309 C 
HETATM  134  C   UNL     1      17.430  62.793  13.235  1.00  0.00     0.309 C 
ENDBRANCH 131 132
ENDBRANCH 130 131
ENDBRANCH 128 130
ENDBRANCH 126 128
BRANCH 126 135
HETATM  135  C   UNL     1      12.330  67.977  12.489  1.00  0.00     0.033 C 
BRANCH 135 136
HETATM  136  C   UNL     1      11.906  69.510  11.971  1.00  0.00     0.019 C 
HETATM  137  C   UNL     1      10.774  69.387  10.937  1.00  0.00     0.023 C 
BRANCH 136 138
HETATM  138  C   UNL     1      11.426  70.543  13.031  1.00  0.00     0.137 C 
HETATM  139  O   UNL     1      10.417  70.303  13.706  1.00  0.00    -0.297 OA
BRANCH 138 140
HETATM  140  C   UNL     1      12.161  71.837  13.281  1.00  0.00     0.109 C 
BRANCH 140 141
HETATM  141  C   UNL     1      12.496  72.111  14.757  1.00  0.00     0.279 C 
BRANCH 141 142
HETATM  142  N   UNL     1      12.225  73.515  15.134  1.00  0.00     0.080 N 
HETATM  143  C   UNL     1      11.936  74.315  13.939  1.00  0.00     0.309 C 
HETATM  144  C   UNL     1      13.357  74.108  15.850  1.00  0.00     0.309 C 
ENDBRANCH 141 142
ENDBRANCH 140 141
ENDBRANCH 138 140
ENDBRANCH 136 138
BRANCH 136 145
HETATM  145  C   UNL     1      13.199  70.139  11.251  1.00  0.00     0.033 C 
BRANCH 145 146
HETATM  146  C   UNL     1      14.083  69.593   9.977  1.00  0.00     0.019 C 
HETATM  147  C   UNL     1      15.415  69.102  10.608  1.00  0.00     0.023 C 
BRANCH 146 148
HETATM  148  C   UNL     1      13.488  68.446   9.081  1.00  0.00     0.033 C 
BRANCH 148 149
HETATM  149  C   UNL     1      14.162  67.053   8.751  1.00  0.00     0.014 C 
HETATM  150  C   UNL     1      13.299  65.970   9.457  1.00  0.00     0.023 C 
HETATM  151  C   UNL     1      15.572  66.864   9.349  1.00  0.00     0.023 C 
BRANCH 149 152
HETATM  152  C   UNL     1      14.245  66.770   7.228  1.00  0.00     0.136 C 
HETATM  153  O   UNL     1      14.057  65.626   6.804  1.00  0.00    -0.297 OA
BRANCH 152 154
HETATM  154  C   UNL     1      14.653  67.873   6.255  1.00  0.00     0.109 C 
BRANCH 154 155
HETATM  155  C   UNL     1      16.129  67.728   5.847  1.00  0.00     0.279 C 
BRANCH 155 156
HETATM  156  N   UNL     1      16.302  67.456   4.403  1.00  0.00     0.080 N 
HETATM  157  C   UNL     1      15.088  67.748   3.639  1.00  0.00     0.309 C 
HETATM  158  C   UNL     1      17.412  68.253   3.867  1.00  0.00     0.309 C 
ENDBRANCH 155 156
ENDBRANCH 154 155
ENDBRANCH 152 154
ENDBRANCH 149 152
ENDBRANCH 148 149
ENDBRANCH 146 148
BRANCH 146 159
HETATM  159  C   UNL     1      14.457  70.838   9.111  1.00  0.00     0.137 C 
HETATM  160  O   UNL     1      13.699  71.808   9.011  1.00  0.00    -0.297 OA
BRANCH 159 161
HETATM  161  C   UNL     1      15.683  70.763   8.227  1.00  0.00     0.109 C 
BRANCH 161 162
HETATM  162  C   UNL     1      16.102  72.118   7.652  1.00  0.00     0.279 C 
BRANCH 162 163
HETATM  163  N   UNL     1      16.606  71.923   6.275  1.00  0.00     0.080 N 
HETATM  164  C   UNL     1      15.583  71.354   5.402  1.00  0.00     0.309 C 
HETATM  165  C   UNL     1      17.795  71.068   6.269  1.00  0.00     0.309 C 
ENDBRANCH 162 163
ENDBRANCH 161 162
ENDBRANCH 159 161
ENDBRANCH 146 159
ENDBRANCH 145 146
ENDBRANCH 136 145
ENDBRANCH 135 136
ENDBRANCH 126 135
ENDBRANCH 125 126
ENDBRANCH 123 125
BRANCH 123 166
HETATM  166  C   UNL     1      13.391  68.494  17.435  1.00  0.00     0.141 C 
HETATM  167  O   UNL     1      14.112  68.714  18.417  1.00  0.00    -0.297 OA
BRANCH 166 168
HETATM  168  C   UNL     1      12.238  69.433  17.174  1.00  0.00     0.110 C 
BRANCH 168 169
HETATM  169  C   UNL     1      11.277  69.381  18.340  1.00  0.00     0.279 C 
BRANCH 169 170
HETATM  170  N   UNL     1      11.144  70.630  19.104  1.00  0.00     0.080 N 
HETATM  171  C   UNL     1      11.780  71.747  18.404  1.00  0.00     0.309 C 
HETATM  172  C   UNL     1      11.781  70.469  20.416  1.00  0.00     0.309 C 
ENDBRANCH 169 170
ENDBRANCH 168 169
ENDBRANCH 166 168
ENDBRANCH 123 166
ENDBRANCH 122 123
ENDBRANCH 120 122
ENDBRANCH 100 120
BRANCH 101 173
HETATM  173  O   UNL     1      16.885  66.768  20.324  1.00  0.00    -0.391 OA
HETATM  174  H   UNL     1      16.151  66.334  19.847  1.00  0.00     0.210 HD
ENDBRANCH 101 173
ENDBRANCH  95  96
ENDBRANCH   5  95
TORSDOF 88
ENDMDL
MODEL 4
REMARK VINA RESULT:      -4.4      7.801     18.372
REMARK WARNING: 32 MAX_TORS EXCEEDED!!!
REMARK  88 active torsions:
REMARK  status: ('A' for Active; 'I' for Inactive)
REMARK    1  A    between atoms: C_1  and  O_28 
REMARK    2  A    between atoms: C_2  and  C_6 
REMARK    3  A    between atoms: C_3  and  O_8 
REMARK    4  A    between atoms: C_4  and  N_10 
REMARK    5  A    between atoms: C_5  and  O_11 
REMARK    6  A    between atoms: C_6  and  O_65 
REMARK    7  A    between atoms: O_11  and  C_18 
REMARK    8  A    between atoms: O_13  and  C_16 
REMARK    9  A    between atoms: C_15  and  C_21 
REMARK   10  A    between atoms: O_17  and  C_20 
REMARK   11  A    between atoms: O_17  and  C_39 
REMARK   12  A    between atoms: N_19  and  C_22 
REMARK   13  A    between atoms: N_19  and  C_161 
REMARK   14  A    between atoms: C_21  and  O_67 
REMARK   15  A    between atoms: O_24  and  C_27 
REMARK   16  A    between atoms: C_26  and  C_32 
REMARK   17  A    between atoms: O_28  and  C_31 
REMARK   18  A    between atoms: C_29  and  O_49 
REMARK   19  A    between atoms: N_30  and  C_33 
REMARK   20  A    between atoms: C_32  and  O_63 
REMARK   21  A    between atoms: O_35  and  C_38 
REMARK   22  A    between atoms: C_37  and  C_42 
REMARK   23  A    between atoms: N_40  and  C_43 
REMARK   24  A    between atoms: C_42  and  O_69 
REMARK   25  A    between atoms: O_45  and  C_48 
REMARK   26  A    between atoms: C_47  and  C_53 
REMARK   27  A    between atoms: O_49  and  C_52 
REMARK   28  A    between atoms: N_51  and  C_54 
REMARK   29  A    between atoms: N_51  and  C_71 
REMARK   30  A    between atoms: C_53  and  O_61 
REMARK   31  A    between atoms: C_71  and  C_73 
REMARK   32  A    between atoms: C_73  and  C_74 
REMARK   33  A    between atoms: C_73  and  C_83 
REMARK   34  A    between atoms: C_74  and  C_75 
REMARK   35  A    between atoms: C_75  and  C_76 
REMARK   36  A    between atoms: C_75  and  C_87 
REMARK   37  A    between atoms: C_76  and  C_77 
REMARK   38  A    between atoms: C_77  and  C_78 
REMARK   39  A    between atoms: C_77  and  C_91 
REMARK   40  A    between atoms: C_78  and  C_79 
REMARK   41  A    between atoms: C_79  and  C_80 
REMARK   42  A    between atoms: C_79  and  C_95 
REMARK   43  A    between atoms: C_80  and  C_81 
REMARK   44  A    between atoms: C_81  and  C_99 
REMARK   45  A    between atoms: C_83  and  C_84 
REMARK   46  A    between atoms: C_84  and  C_85 
REMARK   47  A    between atoms: C_85  and  N_103 
REMARK   48  A    between atoms: C_87  and  C_88 
REMARK   49  A    between atoms: C_88  and  C_89 
REMARK   50  A    between atoms: C_89  and  N_104 
REMARK   51  A    between atoms: C_91  and  C_92 
REMARK   52  A    between atoms: C_92  and  C_93 
REMARK   53  A    between atoms: C_93  and  N_105 
REMARK   54  A    between atoms: C_95  and  C_96 
REMARK   55  A    between atoms: C_96  and  C_97 
REMARK   56  A    between atoms: C_97  and  N_106 
REMARK   57  A    between atoms: C_99  and  C_100 
REMARK   58  A    between atoms: C_100  and  C_101 
REMARK   59  A    between atoms: C_101  and  N_107 
REMARK   60  A    between atoms: N_126  and  C_129 
REMARK   61  A    between atoms: C_129  and  C_135 
REMARK   62  A    between atoms: C_130  and  C_135 
REMARK   63  A    between atoms: C_130  and  C_142 
REMARK   64  A    between atoms: N_132  and  C_139 
REMARK   65  A    between atoms: C_136  and  C_137 
REMARK   66  A    between atoms: C_136  and  C_146 
REMARK   67  A    between atoms: C_137  and  C_139 
REMARK   68  A    between atoms: N_141  and  C_152 
REMARK   69  A    between atoms: C_142  and  C_153 
REMARK   70  A    between atoms: C_142  and  C_159 
REMARK   71  A    between atoms: C_144  and  C_152 
REMARK   72  A    between atoms: C_144  and  C_156 
REMARK   73  A    between atoms: C_146  and  C_162 
REMARK   74  A    between atoms: C_146  and  C_153 
REMARK   75  A    between atoms: C_148  and  C_156 
REMARK   76  A    between atoms: C_148  and  C_149 
REMARK   77  A    between atoms: C_149  and  C_163 
REMARK   78  A    between atoms: C_150  and  C_161 
REMARK   79  A    between atoms: C_150  and  C_159 
REMARK   80  A    between atoms: C_150  and  C_160 
REMARK   81  A    between atoms: C_151  and  N_157 
REMARK   82  A    between atoms: C_151  and  C_154 
REMARK   83  A    between atoms: C_154  and  C_160 
REMARK   84  A    between atoms: C_162  and  C_163 
REMARK   85  A    between atoms: C_163  and  C_169 
REMARK   86  A    between atoms: C_166  and  C_171 
REMARK   87  A    between atoms: C_166  and  C_169 
REMARK   88  A    between atoms: N_167  and  C_171 
ROOT
HETATM    1  C   UNL     1      43.117  74.043  27.931  1.00  0.00     0.186 C 
HETATM    2  C   UNL     1      42.944  72.655  27.274  1.00  0.00     0.179 C 
HETATM    3  C   UNL     1      43.311  73.908  29.455  1.00  0.00     0.187 C 
HETATM    4  C   UNL     1      42.306  72.905  30.072  1.00  0.00     0.303 C 
HETATM    5  C   UNL     1      42.385  71.518  29.345  1.00  0.00     0.296 C 
HETATM    6  O   UNL     1      43.232  71.585  28.193  1.00  0.00    -0.349 OA
ENDROOT
BRANCH   1   7
HETATM    7  O   UNL     1      44.275  74.669  27.360  1.00  0.00    -0.348 OA
BRANCH   7   8
HETATM    8  C   UNL     1      43.998  75.719  26.421  1.00  0.00     0.296 C 
HETATM    9  O   UNL     1      42.579  75.827  26.342  1.00  0.00    -0.349 OA
HETATM   10  C   UNL     1      42.045  76.621  25.270  1.00  0.00     0.179 C 
HETATM   11  C   UNL     1      42.754  76.444  23.911  1.00  0.00     0.186 C 
HETATM   12  C   UNL     1      43.702  75.251  23.916  1.00  0.00     0.187 C 
HETATM   13  C   UNL     1      44.709  75.410  25.059  1.00  0.00     0.303 C 
BRANCH  10  14
HETATM   14  C   UNL     1      42.020  78.091  25.721  1.00  0.00     0.198 C 
BRANCH  14  15
HETATM   15  O   UNL     1      42.462  78.945  24.665  1.00  0.00    -0.398 OA
HETATM   16  H   UNL     1      43.435  78.870  24.634  1.00  0.00     0.209 HD
ENDBRANCH  14  15
ENDBRANCH  10  14
BRANCH  11  17
HETATM   17  O   UNL     1      41.778  76.191  22.889  1.00  0.00    -0.348 OA
BRANCH  17  18
HETATM   18  C   UNL     1      41.953  76.997  21.729  1.00  0.00     0.296 C 
HETATM   19  O   UNL     1      43.184  77.720  21.851  1.00  0.00    -0.351 OA
HETATM   20  C   UNL     1      43.661  78.209  20.582  1.00  0.00     0.150 C 
HETATM   21  C   UNL     1      42.485  78.619  19.674  1.00  0.00     0.068 C 
HETATM   22  C   UNL     1      41.316  79.115  20.539  1.00  0.00     0.158 C 
HETATM   23  C   UNL     1      40.754  77.999  21.484  1.00  0.00     0.303 C 
BRANCH  20  24
HETATM   24  C   UNL     1      44.656  77.220  19.956  1.00  0.00     0.196 C 
BRANCH  24  25
HETATM   25  O   UNL     1      44.046  76.439  18.932  1.00  0.00    -0.398 OA
HETATM   26  H   UNL     1      43.109  76.341  19.183  1.00  0.00     0.209 HD
ENDBRANCH  24  25
ENDBRANCH  20  24
BRANCH  22  27
HETATM   27  O   UNL     1      41.808  80.218  21.318  1.00  0.00    -0.393 OA
HETATM   28  H   UNL     1      42.516  79.873  21.898  1.00  0.00     0.210 HD
ENDBRANCH  22  27
BRANCH  23  29
HETATM   29  N   UNL     1      40.193  78.580  22.745  1.00  0.00     0.096 N 
HETATM   30  H   UNL     1      40.757  79.407  22.939  1.00  0.00     0.316 HD
BRANCH  29  31
HETATM   31  C   UNL     1      38.745  78.919  22.778  1.00  0.00     0.287 C 
BRANCH  31  32
HETATM   32  C   UNL     1      38.393  80.352  23.432  1.00  0.00     0.044 C 
HETATM   33  C   UNL     1      39.672  80.955  24.032  1.00  0.00     0.025 C 
BRANCH  32  34
HETATM   34  C   UNL     1      37.212  80.259  24.542  1.00  0.00     0.035 C 
BRANCH  34  35
HETATM   35  C   UNL     1      37.032  81.266  25.811  1.00  0.00     0.019 C 
HETATM   36  C   UNL     1      38.374  81.111  26.578  1.00  0.00     0.023 C 
BRANCH  35  37
HETATM   37  C   UNL     1      35.794  80.749  26.723  1.00  0.00     0.033 C 
BRANCH  37  38
HETATM   38  C   UNL     1      35.837  79.974  28.168  1.00  0.00     0.019 C 
HETATM   39  C   UNL     1      34.456  79.367  28.467  1.00  0.00     0.023 C 
BRANCH  38  40
HETATM   40  C   UNL     1      36.164  81.110  29.251  1.00  0.00     0.033 C 
BRANCH  40  41
HETATM   41  C   UNL     1      35.340  82.452  29.662  1.00  0.00     0.019 C 
HETATM   42  C   UNL     1      33.994  82.332  28.896  1.00  0.00     0.023 C 
BRANCH  41  43
HETATM   43  C   UNL     1      35.052  82.697  31.181  1.00  0.00     0.033 C 
BRANCH  43  44
HETATM   44  C   UNL     1      34.651  81.610  32.251  1.00  0.00     0.014 C 
HETATM   45  C   UNL     1      34.840  82.275  33.642  1.00  0.00     0.023 C 
HETATM   46  C   UNL     1      35.575  80.377  32.286  1.00  0.00     0.023 C 
BRANCH  44  47
HETATM   47  C   UNL     1      33.193  81.119  32.074  1.00  0.00     0.136 C 
HETATM   48  O   UNL     1      32.960  80.105  31.409  1.00  0.00    -0.297 OA
BRANCH  47  49
HETATM   49  C   UNL     1      32.029  81.933  32.633  1.00  0.00     0.109 C 
BRANCH  49  50
HETATM   50  C   UNL     1      31.536  82.957  31.598  1.00  0.00     0.279 C 
BRANCH  50  51
HETATM   51  N   UNL     1      31.522  84.339  32.122  1.00  0.00     0.080 N 
HETATM   52  C   UNL     1      32.394  85.226  31.352  1.00  0.00     0.309 C 
HETATM   53  C   UNL     1      30.156  84.873  32.107  1.00  0.00     0.309 C 
ENDBRANCH  50  51
ENDBRANCH  49  50
ENDBRANCH  47  49
ENDBRANCH  44  47
ENDBRANCH  43  44
ENDBRANCH  41  43
BRANCH  41  54
HETATM   54  C   UNL     1      36.089  83.663  29.015  1.00  0.00     0.137 C 
HETATM   55  O   UNL     1      37.310  83.767  29.067  1.00  0.00    -0.297 OA
BRANCH  54  56
HETATM   56  C   UNL     1      35.264  84.821  28.493  1.00  0.00     0.109 C 
BRANCH  56  57
HETATM   57  C   UNL     1      35.561  86.137  29.214  1.00  0.00     0.279 C 
BRANCH  57  58
HETATM   58  N   UNL     1      34.692  87.197  28.660  1.00  0.00     0.080 N 
HETATM   59  C   UNL     1      33.486  86.625  28.057  1.00  0.00     0.309 C 
HETATM   60  C   UNL     1      34.321  88.172  29.681  1.00  0.00     0.309 C 
ENDBRANCH  57  58
ENDBRANCH  56  57
ENDBRANCH  54  56
ENDBRANCH  41  54
ENDBRANCH  40  41
ENDBRANCH  38  40
BRANCH  38  61
HETATM   61  C   UNL     1      36.868  78.826  28.337  1.00  0.00     0.137 C 
HETATM   62  O   UNL     1      37.050  78.026  27.412  1.00  0.00    -0.297 OA
BRANCH  61  63
HETATM   63  C   UNL     1      37.688  78.666  29.594  1.00  0.00     0.109 C 
BRANCH  63  64
HETATM   64  C   UNL     1      39.118  78.164  29.345  1.00  0.00     0.279 C 
BRANCH  64  65
HETATM   65  N   UNL     1      40.124  79.036  29.989  1.00  0.00     0.080 N 
HETATM   66  C   UNL     1      40.936  79.742  28.995  1.00  0.00     0.309 C 
HETATM   67  C   UNL     1      39.459  80.015  30.855  1.00  0.00     0.309 C 
ENDBRANCH  64  65
ENDBRANCH  63  64
ENDBRANCH  61  63
ENDBRANCH  38  61
ENDBRANCH  37  38
ENDBRANCH  35  37
BRANCH  35  68
HETATM   68  C   UNL     1      36.783  82.781  25.542  1.00  0.00     0.137 C 
HETATM   69  O   UNL     1      35.645  83.141  25.220  1.00  0.00    -0.297 OA
BRANCH  68  70
HETATM   70  C   UNL     1      37.902  83.829  25.628  1.00  0.00     0.109 C 
BRANCH  70  71
HETATM   71  C   UNL     1      37.509  85.179  24.979  1.00  0.00     0.279 C 
BRANCH  71  72
HETATM   72  N   UNL     1      36.935  86.252  25.817  1.00  0.00     0.080 N 
HETATM   73  C   UNL     1      37.869  87.334  26.080  1.00  0.00     0.309 C 
HETATM   74  C   UNL     1      35.756  86.815  25.141  1.00  0.00     0.309 C 
ENDBRANCH  71  72
ENDBRANCH  70  71
ENDBRANCH  68  70
ENDBRANCH  35  68
ENDBRANCH  34  35
ENDBRANCH  32  34
BRANCH  32  75
HETATM   75  C   UNL     1      37.802  81.149  22.242  1.00  0.00     0.138 C 
HETATM   76  O   UNL     1      37.231  80.561  21.314  1.00  0.00    -0.297 OA
BRANCH  75  77
HETATM   77  C   UNL     1      38.031  82.639  22.111  1.00  0.00     0.109 C 
BRANCH  77  78
HETATM   78  C   UNL     1      38.854  82.908  20.865  1.00  0.00     0.279 C 
BRANCH  78  79
HETATM   79  N   UNL     1      38.898  84.318  20.450  1.00  0.00     0.080 N 
HETATM   80  C   UNL     1      38.095  85.160  21.337  1.00  0.00     0.309 C 
HETATM   81  C   UNL     1      38.410  84.447  19.073  1.00  0.00     0.309 C 
ENDBRANCH  78  79
ENDBRANCH  77  78
ENDBRANCH  75  77
ENDBRANCH  32  75
ENDBRANCH  31  32
ENDBRANCH  29  31
ENDBRANCH  23  29
ENDBRANCH  17  18
ENDBRANCH  11  17
BRANCH  12  82
HETATM   82  O   UNL     1      42.970  74.022  24.024  1.00  0.00    -0.391 OA
HETATM   83  H   UNL     1      42.031  74.293  24.085  1.00  0.00     0.210 HD
ENDBRANCH  12  82
BRANCH  13  84
HETATM   84  N   UNL     1      45.646  74.268  25.065  1.00  0.00     0.090 N 
HETATM   85  H   UNL     1      45.121  73.480  25.461  1.00  0.00     0.313 HD
HETATM   86  H   UNL     1      46.374  74.450  25.768  1.00  0.00     0.313 HD
ENDBRANCH  13  84
ENDBRANCH   7   8
ENDBRANCH   1   7
BRANCH   2  87
HETATM   87  C   UNL     1      41.552  72.522  26.628  1.00  0.00     0.198 C 
BRANCH  87  88
HETATM   88  O   UNL     1      41.385  71.259  25.998  1.00  0.00    -0.398 OA
HETATM   89  H   UNL     1      40.799  71.377  25.230  1.00  0.00     0.209 HD
ENDBRANCH  87  88
ENDBRANCH   2  87
BRANCH   3  90
HETATM   90  O   UNL     1      44.657  73.512  29.767  1.00  0.00    -0.391 OA
HETATM   91  H   UNL     1      44.650  72.537  29.866  1.00  0.00     0.210 HD
ENDBRANCH   3  90
BRANCH   4  92
HETATM   92  N   UNL     1      42.479  72.803  31.540  1.00  0.00     0.090 N 
HETATM   93  H   UNL     1      41.616  73.103  32.002  1.00  0.00     0.313 HD
HETATM   94  H   UNL     1      43.144  73.542  31.803  1.00  0.00     0.313 HD
ENDBRANCH   4  92
BRANCH   5  95
HETATM   95  O   UNL     1      42.950  70.506  30.206  1.00  0.00    -0.348 OA
BRANCH  95  96
HETATM   96  C   UNL     1      42.593  69.125  29.907  1.00  0.00     0.186 C 
HETATM   97  C   UNL     1      43.284  68.166  30.893  1.00  0.00     0.180 C 
HETATM   98  O   UNL     1      42.366  67.324  31.591  1.00  0.00    -0.349 OA
HETATM   99  C   UNL     1      41.355  66.673  30.824  1.00  0.00     0.286 C 
HETATM  100  C   UNL     1      40.423  67.624  29.949  1.00  0.00     0.167 C 
HETATM  101  C   UNL     1      41.043  69.048  30.063  1.00  0.00     0.177 C 
BRANCH  97 102
HETATM  102  C   UNL     1      44.367  67.290  30.246  1.00  0.00     0.198 C 
BRANCH 102 103
HETATM  103  O   UNL     1      44.721  67.804  28.963  1.00  0.00    -0.398 OA
HETATM  104  H   UNL     1      44.111  67.412  28.307  1.00  0.00     0.209 HD
ENDBRANCH 102 103
ENDBRANCH  97 102
BRANCH  99 105
HETATM  105  O   UNL     1      40.578  65.998  31.811  1.00  0.00    -0.348 OA
BRANCH 105 106
HETATM  106  C   UNL     1      40.819  64.605  31.936  1.00  0.00     0.186 C 
HETATM  107  C   UNL     1      41.636  64.099  30.729  1.00  0.00     0.176 C 
HETATM  108  O   UNL     1      42.530  63.016  31.082  1.00  0.00    -0.379 OA
HETATM  109  C   UNL     1      41.995  62.135  32.075  1.00  0.00     0.206 C 
HETATM  110  C   UNL     1      41.811  62.849  33.432  1.00  0.00     0.272 C 
HETATM  111  C   UNL     1      41.623  64.369  33.228  1.00  0.00     0.184 C 
BRANCH 107 112
HETATM  112  C   UNL     1      40.758  63.656  29.553  1.00  0.00     0.198 C 
BRANCH 112 113
HETATM  113  O   UNL     1      39.395  63.569  29.967  1.00  0.00    -0.398 OA
HETATM  114  H   UNL     1      39.405  63.158  30.854  1.00  0.00     0.209 HD
ENDBRANCH 112 113
ENDBRANCH 107 112
BRANCH 110 115
HETATM  115  N   UNL     1      42.931  62.574  34.352  1.00  0.00     0.087 N 
HETATM  116  H   UNL     1      43.671  63.254  34.162  1.00  0.00     0.313 HD
HETATM  117  H   UNL     1      43.360  61.692  34.056  1.00  0.00     0.313 HD
ENDBRANCH 110 115
BRANCH 111 118
HETATM  118  O   UNL     1      42.905  65.026  33.196  1.00  0.00    -0.391 OA
HETATM  119  H   UNL     1      43.015  65.499  34.042  1.00  0.00     0.210 HD
ENDBRANCH 111 118
ENDBRANCH 105 106
ENDBRANCH  99 105
BRANCH 100 120
HETATM  120  N   UNL     1      38.993  67.505  30.402  1.00  0.00    -0.389 N 
HETATM  121  H   UNL     1      39.035  67.326  31.410  1.00  0.00     0.159 HD
BRANCH 120 122
HETATM  122  C   UNL     1      37.838  68.261  29.898  1.00  0.00     0.073 C 
BRANCH 122 123
HETATM  123  C   UNL     1      37.017  67.778  28.606  1.00  0.00     0.049 C 
HETATM  124  C   UNL     1      37.960  68.006  27.412  1.00  0.00     0.029 C 
BRANCH 123 125
HETATM  125  C   UNL     1      35.523  68.373  28.275  1.00  0.00     0.039 C 
BRANCH 125 126
HETATM  126  C   UNL     1      35.119  69.979  28.442  1.00  0.00     0.019 C 
HETATM  127  C   UNL     1      35.104  70.121  29.989  1.00  0.00     0.023 C 
BRANCH 126 128
HETATM  128  C   UNL     1      36.078  71.048  27.832  1.00  0.00     0.137 C 
HETATM  129  O   UNL     1      35.776  71.549  26.742  1.00  0.00    -0.297 OA
BRANCH 128 130
HETATM  130  C   UNL     1      37.388  71.470  28.526  1.00  0.00     0.109 C 
BRANCH 130 131
HETATM  131  C   UNL     1      37.193  72.621  29.540  1.00  0.00     0.279 C 
BRANCH 131 132
HETATM  132  N   UNL     1      36.278  73.733  29.217  1.00  0.00     0.080 N 
HETATM  133  C   UNL     1      37.014  75.001  29.303  1.00  0.00     0.309 C 
HETATM  134  C   UNL     1      35.129  73.809  30.103  1.00  0.00     0.309 C 
ENDBRANCH 131 132
ENDBRANCH 130 131
ENDBRANCH 128 130
ENDBRANCH 126 128
BRANCH 126 135
HETATM  135  C   UNL     1      33.642  70.358  27.833  1.00  0.00     0.033 C 
BRANCH 135 136
HETATM  136  C   UNL     1      32.150  69.836  28.381  1.00  0.00     0.019 C 
HETATM  137  C   UNL     1      32.194  68.308  28.553  1.00  0.00     0.023 C 
BRANCH 136 138
HETATM  138  C   UNL     1      31.610  70.415  29.720  1.00  0.00     0.137 C 
HETATM  139  O   UNL     1      31.181  69.647  30.590  1.00  0.00    -0.297 OA
BRANCH 138 140
HETATM  140  C   UNL     1      31.601  71.896  30.009  1.00  0.00     0.109 C 
BRANCH 140 141
HETATM  141  C   UNL     1      30.388  72.386  30.818  1.00  0.00     0.279 C 
BRANCH 141 142
HETATM  142  N   UNL     1      30.769  72.820  32.179  1.00  0.00     0.080 N 
HETATM  143  C   UNL     1      32.228  72.919  32.290  1.00  0.00     0.309 C 
HETATM  144  C   UNL     1      30.269  71.896  33.200  1.00  0.00     0.309 C 
ENDBRANCH 141 142
ENDBRANCH 140 141
ENDBRANCH 138 140
ENDBRANCH 136 138
BRANCH 136 145
HETATM  145  C   UNL     1      31.075  70.199  27.242  1.00  0.00     0.033 C 
BRANCH 145 146
HETATM  146  C   UNL     1      29.430  70.191  27.286  1.00  0.00     0.019 C 
HETATM  147  C   UNL     1      29.005  69.719  25.869  1.00  0.00     0.023 C 
BRANCH 146 148
HETATM  148  C   UNL     1      28.707  69.301  28.361  1.00  0.00     0.033 C 
BRANCH 148 149
HETATM  149  C   UNL     1      28.159  67.830  28.161  1.00  0.00     0.014 C 
HETATM  150  C   UNL     1      28.187  67.157  29.563  1.00  0.00     0.023 C 
HETATM  151  C   UNL     1      29.052  66.924  27.287  1.00  0.00     0.023 C 
BRANCH 149 152
HETATM  152  C   UNL     1      26.724  67.797  27.575  1.00  0.00     0.136 C 
HETATM  153  O   UNL     1      26.029  68.817  27.589  1.00  0.00    -0.297 OA
BRANCH 152 154
HETATM  154  C   UNL     1      26.123  66.488  27.065  1.00  0.00     0.109 C 
BRANCH 154 155
HETATM  155  C   UNL     1      24.591  66.588  26.968  1.00  0.00     0.279 C 
BRANCH 155 156
HETATM  156  N   UNL     1      23.912  66.237  28.234  1.00  0.00     0.080 N 
HETATM  157  C   UNL     1      22.524  66.700  28.261  1.00  0.00     0.309 C 
HETATM  158  C   UNL     1      23.939  64.784  28.438  1.00  0.00     0.309 C 
ENDBRANCH 155 156
ENDBRANCH 154 155
ENDBRANCH 152 154
ENDBRANCH 149 152
ENDBRANCH 148 149
ENDBRANCH 146 148
BRANCH 146 159
HETATM  159  C   UNL     1      28.968  71.680  27.395  1.00  0.00     0.137 C 
HETATM  160  O   UNL     1      29.729  72.615  27.125  1.00  0.00    -0.297 OA
BRANCH 159 161
HETATM  161  C   UNL     1      27.626  71.977  28.028  1.00  0.00     0.109 C 
BRANCH 161 162
HETATM  162  C   UNL     1      27.578  73.329  28.743  1.00  0.00     0.279 C 
BRANCH 162 163
HETATM  163  N   UNL     1      26.167  73.749  28.885  1.00  0.00     0.080 N 
HETATM  164  C   UNL     1      25.849  74.111  30.264  1.00  0.00     0.309 C 
HETATM  165  C   UNL     1      25.258  72.696  28.426  1.00  0.00     0.309 C 
ENDBRANCH 162 163
ENDBRANCH 161 162
ENDBRANCH 159 161
ENDBRANCH 146 159
ENDBRANCH 145 146
ENDBRANCH 136 145
ENDBRANCH 135 136
ENDBRANCH 126 135
ENDBRANCH 125 126
ENDBRANCH 123 125
BRANCH 123 166
HETATM  166  C   UNL     1      36.763  66.298  29.014  1.00  0.00     0.141 C 
HETATM  167  O   UNL     1      37.690  65.482  29.099  1.00  0.00    -0.297 OA
BRANCH 166 168
HETATM  168  C   UNL     1      35.352  65.794  29.196  1.00  0.00     0.110 C 
BRANCH 168 169
HETATM  169  C   UNL     1      35.086  65.573  30.668  1.00  0.00     0.279 C 
BRANCH 169 170
HETATM  170  N   UNL     1      34.667  66.766  31.419  1.00  0.00     0.080 N 
HETATM  171  C   UNL     1      35.559  67.014  32.553  1.00  0.00     0.309 C 
HETATM  172  C   UNL     1      33.304  66.570  31.922  1.00  0.00     0.309 C 
ENDBRANCH 169 170
ENDBRANCH 168 169
ENDBRANCH 166 168
ENDBRANCH 123 166
ENDBRANCH 122 123
ENDBRANCH 120 122
ENDBRANCH 100 120
BRANCH 101 173
HETATM  173  O   UNL     1      40.684  69.616  31.342  1.00  0.00    -0.391 OA
HETATM  174  H   UNL     1      41.518  69.711  31.844  1.00  0.00     0.210 HD
ENDBRANCH 101 173
ENDBRANCH  95  96
ENDBRANCH   5  95
TORSDOF 88
ENDMDL
MODEL 5
REMARK VINA RESULT:      -4.3      5.723     11.835
REMARK WARNING: 32 MAX_TORS EXCEEDED!!!
REMARK  88 active torsions:
REMARK  status: ('A' for Active; 'I' for Inactive)
REMARK    1  A    between atoms: C_1  and  O_28 
REMARK    2  A    between atoms: C_2  and  C_6 
REMARK    3  A    between atoms: C_3  and  O_8 
REMARK    4  A    between atoms: C_4  and  N_10 
REMARK    5  A    between atoms: C_5  and  O_11 
REMARK    6  A    between atoms: C_6  and  O_65 
REMARK    7  A    between atoms: O_11  and  C_18 
REMARK    8  A    between atoms: O_13  and  C_16 
REMARK    9  A    between atoms: C_15  and  C_21 
REMARK   10  A    between atoms: O_17  and  C_20 
REMARK   11  A    between atoms: O_17  and  C_39 
REMARK   12  A    between atoms: N_19  and  C_22 
REMARK   13  A    between atoms: N_19  and  C_161 
REMARK   14  A    between atoms: C_21  and  O_67 
REMARK   15  A    between atoms: O_24  and  C_27 
REMARK   16  A    between atoms: C_26  and  C_32 
REMARK   17  A    between atoms: O_28  and  C_31 
REMARK   18  A    between atoms: C_29  and  O_49 
REMARK   19  A    between atoms: N_30  and  C_33 
REMARK   20  A    between atoms: C_32  and  O_63 
REMARK   21  A    between atoms: O_35  and  C_38 
REMARK   22  A    between atoms: C_37  and  C_42 
REMARK   23  A    between atoms: N_40  and  C_43 
REMARK   24  A    between atoms: C_42  and  O_69 
REMARK   25  A    between atoms: O_45  and  C_48 
REMARK   26  A    between atoms: C_47  and  C_53 
REMARK   27  A    between atoms: O_49  and  C_52 
REMARK   28  A    between atoms: N_51  and  C_54 
REMARK   29  A    between atoms: N_51  and  C_71 
REMARK   30  A    between atoms: C_53  and  O_61 
REMARK   31  A    between atoms: C_71  and  C_73 
REMARK   32  A    between atoms: C_73  and  C_74 
REMARK   33  A    between atoms: C_73  and  C_83 
REMARK   34  A    between atoms: C_74  and  C_75 
REMARK   35  A    between atoms: C_75  and  C_76 
REMARK   36  A    between atoms: C_75  and  C_87 
REMARK   37  A    between atoms: C_76  and  C_77 
REMARK   38  A    between atoms: C_77  and  C_78 
REMARK   39  A    between atoms: C_77  and  C_91 
REMARK   40  A    between atoms: C_78  and  C_79 
REMARK   41  A    between atoms: C_79  and  C_80 
REMARK   42  A    between atoms: C_79  and  C_95 
REMARK   43  A    between atoms: C_80  and  C_81 
REMARK   44  A    between atoms: C_81  and  C_99 
REMARK   45  A    between atoms: C_83  and  C_84 
REMARK   46  A    between atoms: C_84  and  C_85 
REMARK   47  A    between atoms: C_85  and  N_103 
REMARK   48  A    between atoms: C_87  and  C_88 
REMARK   49  A    between atoms: C_88  and  C_89 
REMARK   50  A    between atoms: C_89  and  N_104 
REMARK   51  A    between atoms: C_91  and  C_92 
REMARK   52  A    between atoms: C_92  and  C_93 
REMARK   53  A    between atoms: C_93  and  N_105 
REMARK   54  A    between atoms: C_95  and  C_96 
REMARK   55  A    between atoms: C_96  and  C_97 
REMARK   56  A    between atoms: C_97  and  N_106 
REMARK   57  A    between atoms: C_99  and  C_100 
REMARK   58  A    between atoms: C_100  and  C_101 
REMARK   59  A    between atoms: C_101  and  N_107 
REMARK   60  A    between atoms: N_126  and  C_129 
REMARK   61  A    between atoms: C_129  and  C_135 
REMARK   62  A    between atoms: C_130  and  C_135 
REMARK   63  A    between atoms: C_130  and  C_142 
REMARK   64  A    between atoms: N_132  and  C_139 
REMARK   65  A    between atoms: C_136  and  C_137 
REMARK   66  A    between atoms: C_136  and  C_146 
REMARK   67  A    between atoms: C_137  and  C_139 
REMARK   68  A    between atoms: N_141  and  C_152 
REMARK   69  A    between atoms: C_142  and  C_153 
REMARK   70  A    between atoms: C_142  and  C_159 
REMARK   71  A    between atoms: C_144  and  C_152 
REMARK   72  A    between atoms: C_144  and  C_156 
REMARK   73  A    between atoms: C_146  and  C_162 
REMARK   74  A    between atoms: C_146  and  C_153 
REMARK   75  A    between atoms: C_148  and  C_156 
REMARK   76  A    between atoms: C_148  and  C_149 
REMARK   77  A    between atoms: C_149  and  C_163 
REMARK   78  A    between atoms: C_150  and  C_161 
REMARK   79  A    between atoms: C_150  and  C_159 
REMARK   80  A    between atoms: C_150  and  C_160 
REMARK   81  A    between atoms: C_151  and  N_157 
REMARK   82  A    between atoms: C_151  and  C_154 
REMARK   83  A    between atoms: C_154  and  C_160 
REMARK   84  A    between atoms: C_162  and  C_163 
REMARK   85  A    between atoms: C_163  and  C_169 
REMARK   86  A    between atoms: C_166  and  C_171 
REMARK   87  A    between atoms: C_166  and  C_169 
REMARK   88  A    between atoms: N_167  and  C_171 
ROOT
HETATM    1  C   UNL     1      22.207  69.809  22.929  1.00  0.00     0.186 C 
HETATM    2  C   UNL     1      22.699  68.792  21.875  1.00  0.00     0.179 C 
HETATM    3  C   UNL     1      20.668  69.918  22.911  1.00  0.00     0.187 C 
HETATM    4  C   UNL     1      20.119  70.008  21.467  1.00  0.00     0.303 C 
HETATM    5  C   UNL     1      20.634  68.808  20.598  1.00  0.00     0.296 C 
HETATM    6  O   UNL     1      21.612  68.039  21.306  1.00  0.00    -0.349 OA
ENDROOT
BRANCH   1   7
HETATM    7  O   UNL     1      22.635  69.360  24.222  1.00  0.00    -0.348 OA
BRANCH   7   8
HETATM    8  C   UNL     1      23.968  69.743  24.590  1.00  0.00     0.296 C 
HETATM    9  O   UNL     1      24.643  68.547  24.970  1.00  0.00    -0.349 OA
HETATM   10  C   UNL     1      25.907  68.695  25.636  1.00  0.00     0.179 C 
HETATM   11  C   UNL     1      25.964  69.827  26.683  1.00  0.00     0.186 C 
HETATM   12  C   UNL     1      24.579  70.379  26.999  1.00  0.00     0.187 C 
HETATM   13  C   UNL     1      23.913  70.847  25.701  1.00  0.00     0.303 C 
BRANCH  10  14
HETATM   14  C   UNL     1      27.004  68.841  24.569  1.00  0.00     0.198 C 
BRANCH  14  15
HETATM   15  O   UNL     1      28.114  69.573  25.089  1.00  0.00    -0.398 OA
HETATM   16  H   UNL     1      28.176  70.396  24.567  1.00  0.00     0.209 HD
ENDBRANCH  14  15
ENDBRANCH  10  14
BRANCH  11  17
HETATM   17  O   UNL     1      26.494  69.316  27.916  1.00  0.00    -0.348 OA
BRANCH  17  18
HETATM   18  C   UNL     1      26.611  67.898  27.936  1.00  0.00     0.296 C 
HETATM   19  O   UNL     1      26.008  67.402  29.137  1.00  0.00    -0.351 OA
HETATM   20  C   UNL     1      25.686  65.999  29.051  1.00  0.00     0.150 C 
HETATM   21  C   UNL     1      26.740  65.245  28.218  1.00  0.00     0.068 C 
HETATM   22  C   UNL     1      28.107  65.929  28.375  1.00  0.00     0.158 C 
HETATM   23  C   UNL     1      28.108  67.398  27.831  1.00  0.00     0.303 C 
BRANCH  20  24
HETATM   24  C   UNL     1      24.232  65.801  28.598  1.00  0.00     0.196 C 
BRANCH  24  25
HETATM   25  O   UNL     1      24.051  64.547  27.945  1.00  0.00    -0.398 OA
HETATM   26  H   UNL     1      24.571  63.896  28.453  1.00  0.00     0.209 HD
ENDBRANCH  24  25
ENDBRANCH  20  24
BRANCH  22  27
HETATM   27  O   UNL     1      28.420  65.924  29.779  1.00  0.00    -0.393 OA
HETATM   28  H   UNL     1      27.991  66.707  30.177  1.00  0.00     0.210 HD
ENDBRANCH  22  27
BRANCH  23  29
HETATM   29  N   UNL     1      29.080  68.259  28.578  1.00  0.00     0.096 N 
HETATM   30  H   UNL     1      29.000  67.977  29.554  1.00  0.00     0.316 HD
BRANCH  29  31
HETATM   31  C   UNL     1      30.504  68.244  28.148  1.00  0.00     0.287 C 
BRANCH  31  32
HETATM   32  C   UNL     1      31.317  69.609  28.432  1.00  0.00     0.044 C 
HETATM   33  C   UNL     1      32.792  69.400  28.058  1.00  0.00     0.025 C 
BRANCH  32  34
HETATM   34  C   UNL     1      31.169  70.117  29.967  1.00  0.00     0.035 C 
BRANCH  34  35
HETATM   35  C   UNL     1      31.518  69.230  31.290  1.00  0.00     0.019 C 
HETATM   36  C   UNL     1      31.595  70.295  32.418  1.00  0.00     0.023 C 
BRANCH  35  37
HETATM   37  C   UNL     1      32.962  68.519  31.082  1.00  0.00     0.033 C 
BRANCH  37  38
HETATM   38  C   UNL     1      33.994  67.941  32.218  1.00  0.00     0.019 C 
HETATM   39  C   UNL     1      34.812  69.101  32.808  1.00  0.00     0.023 C 
BRANCH  38  40
HETATM   40  C   UNL     1      34.975  66.944  31.433  1.00  0.00     0.033 C 
BRANCH  40  41
HETATM   41  C   UNL     1      36.023  67.225  30.220  1.00  0.00     0.019 C 
HETATM   42  C   UNL     1      35.646  66.184  29.131  1.00  0.00     0.023 C 
BRANCH  41  43
HETATM   43  C   UNL     1      36.040  68.657  29.586  1.00  0.00     0.033 C 
BRANCH  43  44
HETATM   44  C   UNL     1      37.063  69.200  28.516  1.00  0.00     0.014 C 
HETATM   45  C   UNL     1      36.281  70.219  27.642  1.00  0.00     0.023 C 
HETATM   46  C   UNL     1      37.563  68.140  27.515  1.00  0.00     0.023 C 
BRANCH  44  47
HETATM   47  C   UNL     1      38.296  69.873  29.167  1.00  0.00     0.136 C 
HETATM   48  O   UNL     1      39.431  69.459  28.912  1.00  0.00    -0.297 OA
BRANCH  47  49
HETATM   49  C   UNL     1      38.118  70.981  30.201  1.00  0.00     0.109 C 
BRANCH  49  50
HETATM   50  C   UNL     1      38.483  72.348  29.601  1.00  0.00     0.279 C 
BRANCH  50  51
HETATM   51  N   UNL     1      37.318  73.249  29.478  1.00  0.00     0.080 N 
HETATM   52  C   UNL     1      36.190  72.802  30.296  1.00  0.00     0.309 C 
HETATM   53  C   UNL     1      37.688  74.613  29.870  1.00  0.00     0.309 C 
ENDBRANCH  50  51
ENDBRANCH  49  50
ENDBRANCH  47  49
ENDBRANCH  44  47
ENDBRANCH  43  44
ENDBRANCH  41  43
BRANCH  41  54
HETATM   54  C   UNL     1      37.439  66.807  30.735  1.00  0.00     0.137 C 
HETATM   55  O   UNL     1      38.054  67.485  31.552  1.00  0.00    -0.297 OA
BRANCH  54  56
HETATM   56  C   UNL     1      38.137  65.647  30.055  1.00  0.00     0.109 C 
BRANCH  56  57
HETATM   57  C   UNL     1      39.636  65.880  29.868  1.00  0.00     0.279 C 
BRANCH  57  58
HETATM   58  N   UNL     1      40.375  64.707  30.382  1.00  0.00     0.080 N 
HETATM   59  C   UNL     1      41.600  64.481  29.611  1.00  0.00     0.309 C 
HETATM   60  C   UNL     1      40.699  64.856  31.797  1.00  0.00     0.309 C 
ENDBRANCH  57  58
ENDBRANCH  56  57
ENDBRANCH  54  56
ENDBRANCH  41  54
ENDBRANCH  40  41
ENDBRANCH  38  40
BRANCH  38  61
HETATM   61  C   UNL     1      33.382  67.177  33.423  1.00  0.00     0.137 C 
HETATM   62  O   UNL     1      33.050  67.800  34.438  1.00  0.00    -0.297 OA
BRANCH  61  63
HETATM   63  C   UNL     1      33.147  65.687  33.389  1.00  0.00     0.109 C 
BRANCH  63  64
HETATM   64  C   UNL     1      33.054  65.038  34.778  1.00  0.00     0.279 C 
BRANCH  64  65
HETATM   65  N   UNL     1      31.789  64.294  34.952  1.00  0.00     0.080 N 
HETATM   66  C   UNL     1      31.989  63.069  35.730  1.00  0.00     0.309 C 
HETATM   67  C   UNL     1      30.797  65.139  35.625  1.00  0.00     0.309 C 
ENDBRANCH  64  65
ENDBRANCH  63  64
ENDBRANCH  61  63
ENDBRANCH  38  61
ENDBRANCH  37  38
ENDBRANCH  35  37
BRANCH  35  68
HETATM   68  C   UNL     1      30.529  68.108  31.727  1.00  0.00     0.137 C 
HETATM   69  O   UNL     1      30.651  66.987  31.220  1.00  0.00    -0.297 OA
BRANCH  68  70
HETATM   70  C   UNL     1      29.396  68.354  32.733  1.00  0.00     0.109 C 
BRANCH  70  71
HETATM   71  C   UNL     1      28.049  68.689  32.047  1.00  0.00     0.279 C 
BRANCH  71  72
HETATM   72  N   UNL     1      27.722  70.095  31.729  1.00  0.00     0.080 N 
HETATM   73  C   UNL     1      26.341  70.281  31.313  1.00  0.00     0.309 C 
HETATM   74  C   UNL     1      27.962  70.928  32.917  1.00  0.00     0.309 C 
ENDBRANCH  71  72
ENDBRANCH  70  71
ENDBRANCH  68  70
ENDBRANCH  35  68
ENDBRANCH  34  35
ENDBRANCH  32  34
BRANCH  32  75
HETATM   75  C   UNL     1      30.573  70.652  27.561  1.00  0.00     0.138 C 
HETATM   76  O   UNL     1      30.417  70.461  26.348  1.00  0.00    -0.297 OA
BRANCH  75  77
HETATM   77  C   UNL     1      30.146  71.985  28.136  1.00  0.00     0.109 C 
BRANCH  77  78
HETATM   78  C   UNL     1      28.688  72.230  27.795  1.00  0.00     0.279 C 
BRANCH  78  79
HETATM   79  N   UNL     1      28.031  73.264  28.608  1.00  0.00     0.080 N 
HETATM   80  C   UNL     1      28.499  73.228  29.994  1.00  0.00     0.309 C 
HETATM   81  C   UNL     1      26.577  73.075  28.574  1.00  0.00     0.309 C 
ENDBRANCH  78  79
ENDBRANCH  77  78
ENDBRANCH  75  77
ENDBRANCH  32  75
ENDBRANCH  31  32
ENDBRANCH  29  31
ENDBRANCH  23  29
ENDBRANCH  17  18
ENDBRANCH  11  17
BRANCH  12  82
HETATM   82  O   UNL     1      23.783  69.397  27.676  1.00  0.00    -0.391 OA
HETATM   83  H   UNL     1      23.060  69.183  27.050  1.00  0.00     0.210 HD
ENDBRANCH  12  82
BRANCH  13  84
HETATM   84  N   UNL     1      22.575  71.401  25.994  1.00  0.00     0.090 N 
HETATM   85  H   UNL     1      21.984  70.593  26.221  1.00  0.00     0.313 HD
HETATM   86  H   UNL     1      22.172  71.756  25.117  1.00  0.00     0.313 HD
ENDBRANCH  13  84
ENDBRANCH   7   8
ENDBRANCH   1   7
BRANCH   2  87
HETATM   87  C   UNL     1      23.564  69.483  20.804  1.00  0.00     0.198 C 
BRANCH  87  88
HETATM   88  O   UNL     1      23.327  70.884  20.762  1.00  0.00    -0.398 OA
HETATM   89  H   UNL     1      22.533  71.074  21.293  1.00  0.00     0.209 HD
ENDBRANCH  87  88
ENDBRANCH   2  87
BRANCH   3  90
HETATM   90  O   UNL     1      20.069  68.807  23.598  1.00  0.00    -0.391 OA
HETATM   91  H   UNL     1      19.946  69.083  24.530  1.00  0.00     0.210 HD
ENDBRANCH   3  90
BRANCH   4  92
HETATM   92  N   UNL     1      18.643  70.142  21.458  1.00  0.00     0.090 N 
HETATM   93  H   UNL     1      18.394  71.102  21.208  1.00  0.00     0.313 HD
HETATM   94  H   UNL     1      18.345  70.079  22.440  1.00  0.00     0.313 HD
ENDBRANCH   4  92
BRANCH   5  95
HETATM   95  O   UNL     1      19.560  67.899  20.272  1.00  0.00    -0.348 OA
BRANCH  95  96
HETATM   96  C   UNL     1      19.643  67.233  18.978  1.00  0.00     0.186 C 
HETATM   97  C   UNL     1      19.890  65.725  19.164  1.00  0.00     0.180 C 
HETATM   98  O   UNL     1      18.903  64.913  18.530  1.00  0.00    -0.349 OA
HETATM   99  C   UNL     1      18.545  65.239  17.189  1.00  0.00     0.286 C 
HETATM  100  C   UNL     1      18.038  66.730  16.945  1.00  0.00     0.167 C 
HETATM  101  C   UNL     1      18.265  67.481  18.290  1.00  0.00     0.177 C 
BRANCH  97 102
HETATM  102  C   UNL     1      21.282  65.267  18.703  1.00  0.00     0.198 C 
BRANCH 102 103
HETATM  103  O   UNL     1      22.250  65.513  19.722  1.00  0.00    -0.398 OA
HETATM  104  H   UNL     1      22.980  64.874  19.600  1.00  0.00     0.209 HD
ENDBRANCH 102 103
ENDBRANCH  97 102
BRANCH  99 105
HETATM  105  O   UNL     1      17.502  64.312  16.893  1.00  0.00    -0.348 OA
BRANCH 105 106
HETATM  106  C   UNL     1      17.276  63.309  17.871  1.00  0.00     0.186 C 
HETATM  107  C   UNL     1      15.764  63.156  18.133  1.00  0.00     0.176 C 
HETATM  108  O   UNL     1      15.394  61.795  18.460  1.00  0.00    -0.379 OA
HETATM  109  C   UNL     1      16.384  61.104  19.229  1.00  0.00     0.206 C 
HETATM  110  C   UNL     1      17.687  60.894  18.426  1.00  0.00     0.272 C 
HETATM  111  C   UNL     1      17.836  61.978  17.335  1.00  0.00     0.184 C 
BRANCH 107 112
HETATM  112  C   UNL     1      15.248  64.089  19.235  1.00  0.00     0.198 C 
BRANCH 112 113
HETATM  113  O   UNL     1      15.145  65.422  18.736  1.00  0.00    -0.398 OA
HETATM  114  H   UNL     1      15.722  65.465  17.949  1.00  0.00     0.209 HD
ENDBRANCH 112 113
ENDBRANCH 107 112
BRANCH 110 115
HETATM  115  N   UNL     1      17.759  59.542  17.841  1.00  0.00     0.087 N 
HETATM  116  H   UNL     1      17.558  59.619  16.841  1.00  0.00     0.313 HD
HETATM  117  H   UNL     1      16.952  59.016  18.189  1.00  0.00     0.313 HD
ENDBRANCH 110 115
BRANCH 111 118
HETATM  118  O   UNL     1      17.171  61.558  16.127  1.00  0.00    -0.391 OA
HETATM  119  H   UNL     1      16.215  61.707  16.250  1.00  0.00     0.210 HD
ENDBRANCH 111 118
ENDBRANCH 105 106
ENDBRANCH  99 105
BRANCH 100 120
HETATM  120  N   UNL     1      16.619  66.718  16.444  1.00  0.00    -0.389 N 
HETATM  121  H   UNL     1      16.029  66.761  17.282  1.00  0.00     0.159 HD
BRANCH 120 122
HETATM  122  C   UNL     1      16.105  67.352  15.222  1.00  0.00     0.073 C 
BRANCH 122 123
HETATM  123  C   UNL     1      14.564  67.221  14.792  1.00  0.00     0.049 C 
HETATM  124  C   UNL     1      14.130  65.817  15.245  1.00  0.00     0.029 C 
BRANCH 123 125
HETATM  125  C   UNL     1      14.086  67.496  13.246  1.00  0.00     0.039 C 
BRANCH 125 126
HETATM  126  C   UNL     1      14.834  66.821  11.922  1.00  0.00     0.019 C 
HETATM  127  C   UNL     1      16.219  67.524  11.975  1.00  0.00     0.023 C 
BRANCH 126 128
HETATM  128  C   UNL     1      15.038  65.275  11.898  1.00  0.00     0.137 C 
HETATM  129  O   UNL     1      14.037  64.552  11.976  1.00  0.00    -0.297 OA
BRANCH 128 130
HETATM  130  C   UNL     1      16.436  64.631  11.810  1.00  0.00     0.109 C 
BRANCH 130 131
HETATM  131  C   UNL     1      16.708  63.616  12.944  1.00  0.00     0.279 C 
BRANCH 131 132
HETATM  132  N   UNL     1      16.686  62.169  12.652  1.00  0.00     0.080 N 
HETATM  133  C   UNL     1      16.880  61.966  11.211  1.00  0.00     0.309 C 
HETATM  134  C   UNL     1      15.444  61.523  13.042  1.00  0.00     0.309 C 
ENDBRANCH 131 132
ENDBRANCH 130 131
ENDBRANCH 128 130
ENDBRANCH 126 128
BRANCH 126 135
HETATM  135  C   UNL     1      14.092  67.159  10.496  1.00  0.00     0.033 C 
BRANCH 135 136
HETATM  136  C   UNL     1      14.055  68.624   9.690  1.00  0.00     0.019 C 
HETATM  137  C   UNL     1      14.197  69.759  10.720  1.00  0.00     0.023 C 
BRANCH 136 138
HETATM  138  C   UNL     1      15.121  68.892   8.590  1.00  0.00     0.137 C 
HETATM  139  O   UNL     1      15.002  68.359   7.480  1.00  0.00    -0.297 OA
BRANCH 138 140
HETATM  140  C   UNL     1      16.305  69.799   8.822  1.00  0.00     0.109 C 
BRANCH 140 141
HETATM  141  C   UNL     1      16.383  71.007   7.873  1.00  0.00     0.279 C 
BRANCH 141 142
HETATM  142  N   UNL     1      17.730  71.161   7.283  1.00  0.00     0.080 N 
HETATM  143  C   UNL     1      18.164  72.560   7.366  1.00  0.00     0.309 C 
HETATM  144  C   UNL     1      17.759  70.729   5.884  1.00  0.00     0.309 C 
ENDBRANCH 141 142
ENDBRANCH 140 141
ENDBRANCH 138 140
ENDBRANCH 136 138
BRANCH 136 145
HETATM  145  C   UNL     1      12.613  68.741   8.988  1.00  0.00     0.033 C 
BRANCH 145 146
HETATM  146  C   UNL     1      11.128  68.270   9.515  1.00  0.00     0.019 C 
HETATM  147  C   UNL     1      11.094  66.737   9.268  1.00  0.00     0.023 C 
BRANCH 146 148
HETATM  148  C   UNL     1      10.731  68.557  11.009  1.00  0.00     0.033 C 
BRANCH 148 149
HETATM  149  C   UNL     1      10.524  69.974  11.681  1.00  0.00     0.014 C 
HETATM  150  C   UNL     1       8.990  70.157  11.855  1.00  0.00     0.023 C 
HETATM  151  C   UNL     1      10.952  71.169  10.803  1.00  0.00     0.023 C 
BRANCH 149 152
HETATM  152  C   UNL     1      11.242  70.103  13.049  1.00  0.00     0.136 C 
HETATM  153  O   UNL     1      11.070  69.244  13.919  1.00  0.00    -0.297 OA
BRANCH 152 154
HETATM  154  C   UNL     1      12.087  71.334  13.370  1.00  0.00     0.109 C 
BRANCH 154 155
HETATM  155  C   UNL     1      11.368  72.246  14.379  1.00  0.00     0.279 C 
BRANCH 155 156
HETATM  156  N   UNL     1      11.964  72.187  15.731  1.00  0.00     0.080 N 
HETATM  157  C   UNL     1      13.250  72.882  15.797  1.00  0.00     0.309 C 
HETATM  158  C   UNL     1      11.047  72.776  16.715  1.00  0.00     0.309 C 
ENDBRANCH 155 156
ENDBRANCH 154 155
ENDBRANCH 152 154
ENDBRANCH 149 152
ENDBRANCH 148 149
ENDBRANCH 146 148
BRANCH 146 159
HETATM  159  C   UNL     1      10.078  68.881   8.533  1.00  0.00     0.137 C 
HETATM  160  O   UNL     1      10.361  69.824   7.787  1.00  0.00    -0.297 OA
BRANCH 159 161
HETATM  161  C   UNL     1       8.637  68.433   8.643  1.00  0.00     0.109 C 
BRANCH 161 162
HETATM  162  C   UNL     1       7.629  69.551   8.368  1.00  0.00     0.279 C 
BRANCH 162 163
HETATM  163  N   UNL     1       6.735  69.135   7.266  1.00  0.00     0.080 N 
HETATM  164  C   UNL     1       7.300  69.466   5.961  1.00  0.00     0.309 C 
HETATM  165  C   UNL     1       5.412  69.747   7.404  1.00  0.00     0.309 C 
ENDBRANCH 162 163
ENDBRANCH 161 162
ENDBRANCH 159 161
ENDBRANCH 146 159
ENDBRANCH 145 146
ENDBRANCH 136 145
ENDBRANCH 135 136
ENDBRANCH 126 135
ENDBRANCH 125 126
ENDBRANCH 123 125
BRANCH 123 166
HETATM  166  C   UNL     1      13.981  68.418  15.597  1.00  0.00     0.141 C 
HETATM  167  O   UNL     1      14.352  69.580  15.388  1.00  0.00    -0.297 OA
BRANCH 166 168
HETATM  168  C   UNL     1      13.031  68.169  16.744  1.00  0.00     0.110 C 
BRANCH 168 169
HETATM  169  C   UNL     1      13.739  68.453  18.049  1.00  0.00     0.279 C 
BRANCH 169 170
HETATM  170  N   UNL     1      12.869  68.856  19.164  1.00  0.00     0.080 N 
HETATM  171  C   UNL     1      12.384  67.688  19.902  1.00  0.00     0.309 C 
HETATM  172  C   UNL     1      11.718  69.597  18.641  1.00  0.00     0.309 C 
ENDBRANCH 169 170
ENDBRANCH 168 169
ENDBRANCH 166 168
ENDBRANCH 123 166
ENDBRANCH 122 123
ENDBRANCH 120 122
ENDBRANCH 100 120
BRANCH 101 173
HETATM  173  O   UNL     1      17.219  67.113  19.216  1.00  0.00    -0.391 OA
HETATM  174  H   UNL     1      17.537  67.367  20.105  1.00  0.00     0.210 HD
ENDBRANCH 101 173
ENDBRANCH  95  96
ENDBRANCH   5  95
TORSDOF 88
ENDMDL
MODEL 6
REMARK VINA RESULT:      -4.3      8.696     18.398
REMARK WARNING: 32 MAX_TORS EXCEEDED!!!
REMARK  88 active torsions:
REMARK  status: ('A' for Active; 'I' for Inactive)
REMARK    1  A    between atoms: C_1  and  O_28 
REMARK    2  A    between atoms: C_2  and  C_6 
REMARK    3  A    between atoms: C_3  and  O_8 
REMARK    4  A    between atoms: C_4  and  N_10 
REMARK    5  A    between atoms: C_5  and  O_11 
REMARK    6  A    between atoms: C_6  and  O_65 
REMARK    7  A    between atoms: O_11  and  C_18 
REMARK    8  A    between atoms: O_13  and  C_16 
REMARK    9  A    between atoms: C_15  and  C_21 
REMARK   10  A    between atoms: O_17  and  C_20 
REMARK   11  A    between atoms: O_17  and  C_39 
REMARK   12  A    between atoms: N_19  and  C_22 
REMARK   13  A    between atoms: N_19  and  C_161 
REMARK   14  A    between atoms: C_21  and  O_67 
REMARK   15  A    between atoms: O_24  and  C_27 
REMARK   16  A    between atoms: C_26  and  C_32 
REMARK   17  A    between atoms: O_28  and  C_31 
REMARK   18  A    between atoms: C_29  and  O_49 
REMARK   19  A    between atoms: N_30  and  C_33 
REMARK   20  A    between atoms: C_32  and  O_63 
REMARK   21  A    between atoms: O_35  and  C_38 
REMARK   22  A    between atoms: C_37  and  C_42 
REMARK   23  A    between atoms: N_40  and  C_43 
REMARK   24  A    between atoms: C_42  and  O_69 
REMARK   25  A    between atoms: O_45  and  C_48 
REMARK   26  A    between atoms: C_47  and  C_53 
REMARK   27  A    between atoms: O_49  and  C_52 
REMARK   28  A    between atoms: N_51  and  C_54 
REMARK   29  A    between atoms: N_51  and  C_71 
REMARK   30  A    between atoms: C_53  and  O_61 
REMARK   31  A    between atoms: C_71  and  C_73 
REMARK   32  A    between atoms: C_73  and  C_74 
REMARK   33  A    between atoms: C_73  and  C_83 
REMARK   34  A    between atoms: C_74  and  C_75 
REMARK   35  A    between atoms: C_75  and  C_76 
REMARK   36  A    between atoms: C_75  and  C_87 
REMARK   37  A    between atoms: C_76  and  C_77 
REMARK   38  A    between atoms: C_77  and  C_78 
REMARK   39  A    between atoms: C_77  and  C_91 
REMARK   40  A    between atoms: C_78  and  C_79 
REMARK   41  A    between atoms: C_79  and  C_80 
REMARK   42  A    between atoms: C_79  and  C_95 
REMARK   43  A    between atoms: C_80  and  C_81 
REMARK   44  A    between atoms: C_81  and  C_99 
REMARK   45  A    between atoms: C_83  and  C_84 
REMARK   46  A    between atoms: C_84  and  C_85 
REMARK   47  A    between atoms: C_85  and  N_103 
REMARK   48  A    between atoms: C_87  and  C_88 
REMARK   49  A    between atoms: C_88  and  C_89 
REMARK   50  A    between atoms: C_89  and  N_104 
REMARK   51  A    between atoms: C_91  and  C_92 
REMARK   52  A    between atoms: C_92  and  C_93 
REMARK   53  A    between atoms: C_93  and  N_105 
REMARK   54  A    between atoms: C_95  and  C_96 
REMARK   55  A    between atoms: C_96  and  C_97 
REMARK   56  A    between atoms: C_97  and  N_106 
REMARK   57  A    between atoms: C_99  and  C_100 
REMARK   58  A    between atoms: C_100  and  C_101 
REMARK   59  A    between atoms: C_101  and  N_107 
REMARK   60  A    between atoms: N_126  and  C_129 
REMARK   61  A    between atoms: C_129  and  C_135 
REMARK   62  A    between atoms: C_130  and  C_135 
REMARK   63  A    between atoms: C_130  and  C_142 
REMARK   64  A    between atoms: N_132  and  C_139 
REMARK   65  A    between atoms: C_136  and  C_137 
REMARK   66  A    between atoms: C_136  and  C_146 
REMARK   67  A    between atoms: C_137  and  C_139 
REMARK   68  A    between atoms: N_141  and  C_152 
REMARK   69  A    between atoms: C_142  and  C_153 
REMARK   70  A    between atoms: C_142  and  C_159 
REMARK   71  A    between atoms: C_144  and  C_152 
REMARK   72  A    between atoms: C_144  and  C_156 
REMARK   73  A    between atoms: C_146  and  C_162 
REMARK   74  A    between atoms: C_146  and  C_153 
REMARK   75  A    between atoms: C_148  and  C_156 
REMARK   76  A    between atoms: C_148  and  C_149 
REMARK   77  A    between atoms: C_149  and  C_163 
REMARK   78  A    between atoms: C_150  and  C_161 
REMARK   79  A    between atoms: C_150  and  C_159 
REMARK   80  A    between atoms: C_150  and  C_160 
REMARK   81  A    between atoms: C_151  and  N_157 
REMARK   82  A    between atoms: C_151  and  C_154 
REMARK   83  A    between atoms: C_154  and  C_160 
REMARK   84  A    between atoms: C_162  and  C_163 
REMARK   85  A    between atoms: C_163  and  C_169 
REMARK   86  A    between atoms: C_166  and  C_171 
REMARK   87  A    between atoms: C_166  and  C_169 
REMARK   88  A    between atoms: N_167  and  C_171 
ROOT
HETATM    1  C   UNL     1      43.571  74.909  25.009  1.00  0.00     0.186 C 
HETATM    2  C   UNL     1      42.100  75.049  25.463  1.00  0.00     0.179 C 
HETATM    3  C   UNL     1      44.343  73.950  25.938  1.00  0.00     0.187 C 
HETATM    4  C   UNL     1      44.041  74.233  27.430  1.00  0.00     0.303 C 
HETATM    5  C   UNL     1      42.497  74.200  27.703  1.00  0.00     0.296 C 
HETATM    6  O   UNL     1      41.758  74.091  26.481  1.00  0.00    -0.349 OA
ENDROOT
BRANCH   1   7
HETATM    7  O   UNL     1      43.582  74.384  23.674  1.00  0.00    -0.348 OA
BRANCH   7   8
HETATM    8  C   UNL     1      44.017  75.305  22.662  1.00  0.00     0.296 C 
HETATM    9  O   UNL     1      44.275  76.541  23.323  1.00  0.00    -0.349 OA
HETATM   10  C   UNL     1      44.464  77.697  22.492  1.00  0.00     0.179 C 
HETATM   11  C   UNL     1      43.505  77.798  21.287  1.00  0.00     0.186 C 
HETATM   12  C   UNL     1      42.365  76.792  21.382  1.00  0.00     0.187 C 
HETATM   13  C   UNL     1      42.946  75.382  21.521  1.00  0.00     0.303 C 
BRANCH  10  14
HETATM   14  C   UNL     1      45.939  77.749  22.061  1.00  0.00     0.198 C 
BRANCH  14  15
HETATM   15  O   UNL     1      46.054  77.577  20.649  1.00  0.00    -0.398 OA
HETATM   16  H   UNL     1      46.550  78.348  20.312  1.00  0.00     0.209 HD
ENDBRANCH  14  15
ENDBRANCH  10  14
BRANCH  11  17
HETATM   17  O   UNL     1      42.903  79.102  21.260  1.00  0.00    -0.348 OA
BRANCH  17  18
HETATM   18  C   UNL     1      42.921  79.705  19.971  1.00  0.00     0.296 C 
HETATM   19  O   UNL     1      43.380  81.057  20.100  1.00  0.00    -0.351 OA
HETATM   20  C   UNL     1      43.843  81.600  18.847  1.00  0.00     0.150 C 
HETATM   21  C   UNL     1      43.004  81.063  17.672  1.00  0.00     0.068 C 
HETATM   22  C   UNL     1      41.570  80.784  18.149  1.00  0.00     0.158 C 
HETATM   23  C   UNL     1      41.511  79.675  19.253  1.00  0.00     0.303 C 
BRANCH  20  24
HETATM   24  C   UNL     1      45.362  81.418  18.702  1.00  0.00     0.196 C 
BRANCH  24  25
HETATM   25  O   UNL     1      45.690  80.125  18.201  1.00  0.00    -0.398 OA
HETATM   26  H   UNL     1      45.656  80.191  17.228  1.00  0.00     0.209 HD
ENDBRANCH  24  25
ENDBRANCH  20  24
BRANCH  22  27
HETATM   27  O   UNL     1      41.050  82.021  18.665  1.00  0.00    -0.393 OA
HETATM   28  H   UNL     1      40.196  82.188  18.219  1.00  0.00     0.210 HD
ENDBRANCH  22  27
BRANCH  23  29
HETATM   29  N   UNL     1      40.360  79.891  20.187  1.00  0.00     0.096 N 
HETATM   30  H   UNL     1      40.023  78.959  20.425  1.00  0.00     0.316 HD
BRANCH  29  31
HETATM   31  C   UNL     1      40.599  80.688  21.421  1.00  0.00     0.287 C 
BRANCH  31  32
HETATM   32  C   UNL     1      39.581  80.385  22.637  1.00  0.00     0.044 C 
HETATM   33  C   UNL     1      38.622  79.260  22.218  1.00  0.00     0.025 C 
BRANCH  32  34
HETATM   34  C   UNL     1      38.763  81.705  23.110  1.00  0.00     0.035 C 
BRANCH  34  35
HETATM   35  C   UNL     1      38.803  83.154  22.365  1.00  0.00     0.019 C 
HETATM   36  C   UNL     1      40.323  83.429  22.210  1.00  0.00     0.023 C 
BRANCH  35  37
HETATM   37  C   UNL     1      38.121  84.264  23.332  1.00  0.00     0.033 C 
BRANCH  37  38
HETATM   38  C   UNL     1      37.865  84.196  24.951  1.00  0.00     0.019 C 
HETATM   39  C   UNL     1      39.204  83.978  25.675  1.00  0.00     0.023 C 
BRANCH  38  40
HETATM   40  C   UNL     1      36.924  82.918  25.180  1.00  0.00     0.033 C 
BRANCH  40  41
HETATM   41  C   UNL     1      36.913  81.809  26.370  1.00  0.00     0.019 C 
HETATM   42  C   UNL     1      35.841  80.775  25.930  1.00  0.00     0.023 C 
BRANCH  41  43
HETATM   43  C   UNL     1      38.253  81.064  26.688  1.00  0.00     0.033 C 
BRANCH  43  44
HETATM   44  C   UNL     1      38.406  79.663  27.394  1.00  0.00     0.014 C 
HETATM   45  C   UNL     1      39.933  79.391  27.498  1.00  0.00     0.023 C 
HETATM   46  C   UNL     1      37.860  78.474  26.579  1.00  0.00     0.023 C 
BRANCH  44  47
HETATM   47  C   UNL     1      37.750  79.633  28.796  1.00  0.00     0.136 C 
HETATM   48  O   UNL     1      36.650  79.094  28.950  1.00  0.00    -0.297 OA
BRANCH  47  49
HETATM   49  C   UNL     1      38.405  80.351  29.973  1.00  0.00     0.109 C 
BRANCH  49  50
HETATM   50  C   UNL     1      37.340  80.896  30.938  1.00  0.00     0.279 C 
BRANCH  50  51
HETATM   51  N   UNL     1      37.641  80.591  32.352  1.00  0.00     0.080 N 
HETATM   52  C   UNL     1      38.566  79.465  32.487  1.00  0.00     0.309 C 
HETATM   53  C   UNL     1      38.216  81.769  33.013  1.00  0.00     0.309 C 
ENDBRANCH  50  51
ENDBRANCH  49  50
ENDBRANCH  47  49
ENDBRANCH  44  47
ENDBRANCH  43  44
ENDBRANCH  41  43
BRANCH  41  54
HETATM   54  C   UNL     1      36.329  82.510  27.641  1.00  0.00     0.137 C 
HETATM   55  O   UNL     1      37.009  83.261  28.332  1.00  0.00    -0.297 OA
BRANCH  54  56
HETATM   56  C   UNL     1      34.957  82.088  28.127  1.00  0.00     0.109 C 
BRANCH  56  57
HETATM   57  C   UNL     1      34.539  82.796  29.416  1.00  0.00     0.279 C 
BRANCH  57  58
HETATM   58  N   UNL     1      33.447  82.030  30.054  1.00  0.00     0.080 N 
HETATM   59  C   UNL     1      33.323  82.377  31.472  1.00  0.00     0.309 C 
HETATM   60  C   UNL     1      32.173  82.249  29.377  1.00  0.00     0.309 C 
ENDBRANCH  57  58
ENDBRANCH  56  57
ENDBRANCH  54  56
ENDBRANCH  41  54
ENDBRANCH  40  41
ENDBRANCH  38  40
BRANCH  38  61
HETATM   61  C   UNL     1      37.196  85.424  25.625  1.00  0.00     0.137 C 
HETATM   62  O   UNL     1      37.900  86.288  26.160  1.00  0.00    -0.297 OA
BRANCH  61  63
HETATM   63  C   UNL     1      35.699  85.619  25.626  1.00  0.00     0.109 C 
BRANCH  63  64
HETATM   64  C   UNL     1      35.121  86.004  26.996  1.00  0.00     0.279 C 
BRANCH  64  65
HETATM   65  N   UNL     1      34.552  87.369  26.986  1.00  0.00     0.080 N 
HETATM   66  C   UNL     1      35.292  88.264  27.879  1.00  0.00     0.309 C 
HETATM   67  C   UNL     1      34.578  87.914  25.624  1.00  0.00     0.309 C 
ENDBRANCH  64  65
ENDBRANCH  63  64
ENDBRANCH  61  63
ENDBRANCH  38  61
ENDBRANCH  37  38
ENDBRANCH  35  37
BRANCH  35  68
HETATM   68  C   UNL     1      38.123  83.303  20.970  1.00  0.00     0.137 C 
HETATM   69  O   UNL     1      37.661  82.291  20.431  1.00  0.00    -0.297 OA
BRANCH  68  70
HETATM   70  C   UNL     1      38.037  84.648  20.234  1.00  0.00     0.109 C 
BRANCH  70  71
HETATM   71  C   UNL     1      38.319  84.518  18.717  1.00  0.00     0.279 C 
BRANCH  71  72
HETATM   72  N   UNL     1      39.162  85.526  18.042  1.00  0.00     0.080 N 
HETATM   73  C   UNL     1      40.539  85.525  18.508  1.00  0.00     0.309 C 
HETATM   74  C   UNL     1      39.165  85.263  16.595  1.00  0.00     0.309 C 
ENDBRANCH  71  72
ENDBRANCH  70  71
ENDBRANCH  68  70
ENDBRANCH  35  68
ENDBRANCH  34  35
ENDBRANCH  32  34
BRANCH  32  75
HETATM   75  C   UNL     1      40.527  80.023  23.809  1.00  0.00     0.138 C 
HETATM   76  O   UNL     1      40.537  78.877  24.278  1.00  0.00    -0.297 OA
BRANCH  75  77
HETATM   77  C   UNL     1      41.354  81.086  24.499  1.00  0.00     0.109 C 
BRANCH  77  78
HETATM   78  C   UNL     1      42.821  80.706  24.417  1.00  0.00     0.279 C 
BRANCH  78  79
HETATM   79  N   UNL     1      43.755  81.838  24.505  1.00  0.00     0.080 N 
HETATM   80  C   UNL     1      44.481  82.029  23.249  1.00  0.00     0.309 C 
HETATM   81  C   UNL     1      44.710  81.610  25.596  1.00  0.00     0.309 C 
ENDBRANCH  78  79
ENDBRANCH  77  78
ENDBRANCH  75  77
ENDBRANCH  32  75
ENDBRANCH  31  32
ENDBRANCH  29  31
ENDBRANCH  23  29
ENDBRANCH  17  18
ENDBRANCH  11  17
BRANCH  12  82
HETATM   82  O   UNL     1      41.494  77.114  22.475  1.00  0.00    -0.391 OA
HETATM   83  H   UNL     1      41.451  78.093  22.483  1.00  0.00     0.210 HD
ENDBRANCH  12  82
BRANCH  13  84
HETATM   84  N   UNL     1      41.850  74.393  21.597  1.00  0.00     0.090 N 
HETATM   85  H   UNL     1      40.984  74.928  21.472  1.00  0.00     0.313 HD
HETATM   86  H   UNL     1      41.787  74.054  22.566  1.00  0.00     0.313 HD
ENDBRANCH  13  84
ENDBRANCH   7   8
ENDBRANCH   1   7
BRANCH   2  87
HETATM   87  C   UNL     1      41.790  76.497  25.884  1.00  0.00     0.198 C 
BRANCH  87  88
HETATM   88  O   UNL     1      42.758  77.409  25.382  1.00  0.00    -0.398 OA
HETATM   89  H   UNL     1      43.634  76.988  25.445  1.00  0.00     0.209 HD
ENDBRANCH  87  88
ENDBRANCH   2  87
BRANCH   3  90
HETATM   90  O   UNL     1      44.039  72.580  25.626  1.00  0.00    -0.391 OA
HETATM   91  H   UNL     1      43.063  72.498  25.631  1.00  0.00     0.210 HD
ENDBRANCH   3  90
BRANCH   4  92
HETATM   92  N   UNL     1      44.808  73.328  28.317  1.00  0.00     0.090 N 
HETATM   93  H   UNL     1      45.457  73.882  28.883  1.00  0.00     0.313 HD
HETATM   94  H   UNL     1      45.440  72.795  27.705  1.00  0.00     0.313 HD
ENDBRANCH   4  92
BRANCH   5  95
HETATM   95  O   UNL     1      42.131  73.055  28.502  1.00  0.00    -0.348 OA
BRANCH  95  96
HETATM   96  C   UNL     1      41.131  73.279  29.539  1.00  0.00     0.186 C 
HETATM   97  C   UNL     1      40.486  74.667  29.374  1.00  0.00     0.180 C 
HETATM   98  O   UNL     1      39.065  74.612  29.251  1.00  0.00    -0.349 OA
HETATM   99  C   UNL     1      38.354  73.794  30.178  1.00  0.00     0.286 C 
HETATM  100  C   UNL     1      38.798  72.265  30.242  1.00  0.00     0.167 C 
HETATM  101  C   UNL     1      40.068  72.154  29.346  1.00  0.00     0.177 C 
BRANCH  97 102
HETATM  102  C   UNL     1      40.849  75.654  30.492  1.00  0.00     0.198 C 
BRANCH 102 103
HETATM  103  O   UNL     1      40.239  76.922  30.254  1.00  0.00    -0.398 OA
HETATM  104  H   UNL     1      39.382  76.932  30.723  1.00  0.00     0.209 HD
ENDBRANCH 102 103
ENDBRANCH  97 102
BRANCH  99 105
HETATM  105  O   UNL     1      37.002  73.893  29.734  1.00  0.00    -0.348 OA
BRANCH 105 106
HETATM  106  C   UNL     1      36.092  74.468  30.661  1.00  0.00     0.186 C 
HETATM  107  C   UNL     1      36.535  74.149  32.103  1.00  0.00     0.176 C 
HETATM  108  O   UNL     1      36.204  75.211  33.030  1.00  0.00    -0.379 OA
HETATM  109  C   UNL     1      34.968  75.866  32.729  1.00  0.00     0.206 C 
HETATM  110  C   UNL     1      35.036  76.627  31.386  1.00  0.00     0.272 C 
HETATM  111  C   UNL     1      36.092  75.994  30.454  1.00  0.00     0.184 C 
BRANCH 107 112
HETATM  112  C   UNL     1      35.958  72.831  32.633  1.00  0.00     0.198 C 
BRANCH 112 113
HETATM  113  O   UNL     1      35.220  72.174  31.603  1.00  0.00    -0.398 OA
HETATM  114  H   UNL     1      34.849  71.365  32.005  1.00  0.00     0.209 HD
ENDBRANCH 112 113
ENDBRANCH 107 112
BRANCH 110 115
HETATM  115  N   UNL     1      35.300  78.065  31.583  1.00  0.00     0.087 N 
HETATM  116  H   UNL     1      35.324  78.248  32.589  1.00  0.00     0.313 HD
HETATM  117  H   UNL     1      34.460  78.572  31.286  1.00  0.00     0.313 HD
ENDBRANCH 110 115
BRANCH 111 118
HETATM  118  O   UNL     1      37.387  76.574  30.706  1.00  0.00    -0.391 OA
HETATM  119  H   UNL     1      37.862  76.617  29.856  1.00  0.00     0.210 HD
ENDBRANCH 111 118
ENDBRANCH 105 106
ENDBRANCH  99 105
BRANCH 100 120
HETATM  120  N   UNL     1      37.651  71.376  29.846  1.00  0.00    -0.389 N 
HETATM  121  H   UNL     1      37.191  71.848  29.061  1.00  0.00     0.159 HD
BRANCH 120 122
HETATM  122  C   UNL     1      37.622  69.907  29.861  1.00  0.00     0.073 C 
BRANCH 122 123
HETATM  123  C   UNL     1      37.307  69.059  28.535  1.00  0.00     0.049 C 
HETATM  124  C   UNL     1      36.825  70.086  27.497  1.00  0.00     0.029 C 
BRANCH 123 125
HETATM  125  C   UNL     1      36.296  67.766  28.572  1.00  0.00     0.039 C 
BRANCH 125 126
HETATM  126  C   UNL     1      34.761  67.821  29.213  1.00  0.00     0.019 C 
HETATM  127  C   UNL     1      34.301  66.352  29.003  1.00  0.00     0.023 C 
BRANCH 126 128
HETATM  128  C   UNL     1      34.603  68.205  30.717  1.00  0.00     0.137 C 
HETATM  129  O   UNL     1      34.829  69.375  31.047  1.00  0.00    -0.297 OA
BRANCH 128 130
HETATM  130  C   UNL     1      34.208  67.173  31.791  1.00  0.00     0.109 C 
BRANCH 130 131
HETATM  131  C   UNL     1      34.192  67.762  33.220  1.00  0.00     0.279 C 
BRANCH 131 132
HETATM  132  N   UNL     1      33.022  68.538  33.679  1.00  0.00     0.080 N 
HETATM  133  C   UNL     1      33.489  69.753  34.360  1.00  0.00     0.309 C 
HETATM  134  C   UNL     1      32.165  67.802  34.592  1.00  0.00     0.309 C 
ENDBRANCH 131 132
ENDBRANCH 130 131
ENDBRANCH 128 130
ENDBRANCH 126 128
BRANCH 126 135
HETATM  135  C   UNL     1      33.747  68.842  28.420  1.00  0.00     0.033 C 
BRANCH 135 136
HETATM  136  C   UNL     1      32.215  69.322  28.889  1.00  0.00     0.019 C 
HETATM  137  C   UNL     1      31.550  68.169  29.660  1.00  0.00     0.023 C 
BRANCH 136 138
HETATM  138  C   UNL     1      32.077  70.588  29.783  1.00  0.00     0.137 C 
HETATM  139  O   UNL     1      32.771  71.584  29.544  1.00  0.00    -0.297 OA
BRANCH 138 140
HETATM  140  C   UNL     1      31.107  70.653  30.937  1.00  0.00     0.109 C 
BRANCH 140 141
HETATM  141  C   UNL     1      31.438  71.722  31.994  1.00  0.00     0.279 C 
BRANCH 141 142
HETATM  142  N   UNL     1      30.283  72.006  32.873  1.00  0.00     0.080 N 
HETATM  143  C   UNL     1      29.946  70.820  33.667  1.00  0.00     0.309 C 
HETATM  144  C   UNL     1      29.109  72.421  32.102  1.00  0.00     0.309 C 
ENDBRANCH 141 142
ENDBRANCH 140 141
ENDBRANCH 138 140
ENDBRANCH 136 138
BRANCH 136 145
HETATM  145  C   UNL     1      31.375  69.599  27.546  1.00  0.00     0.033 C 
BRANCH 145 146
HETATM  146  C   UNL     1      29.756  69.771  27.317  1.00  0.00     0.019 C 
HETATM  147  C   UNL     1      29.549  69.530  25.796  1.00  0.00     0.023 C 
BRANCH 146 148
HETATM  148  C   UNL     1      28.776  68.841  28.121  1.00  0.00     0.033 C 
BRANCH 148 149
HETATM  149  C   UNL     1      28.090  67.513  27.602  1.00  0.00     0.014 C 
HETATM  150  C   UNL     1      27.661  66.718  28.868  1.00  0.00     0.023 C 
HETATM  151  C   UNL     1      29.037  66.551  26.853  1.00  0.00     0.023 C 
BRANCH 149 152
HETATM  152  C   UNL     1      26.864  67.783  26.692  1.00  0.00     0.136 C 
HETATM  153  O   UNL     1      26.627  67.036  25.739  1.00  0.00    -0.297 OA
BRANCH 152 154
HETATM  154  C   UNL     1      25.998  69.024  26.904  1.00  0.00     0.109 C 
BRANCH 154 155
HETATM  155  C   UNL     1      25.940  69.878  25.626  1.00  0.00     0.279 C 
BRANCH 155 156
HETATM  156  N   UNL     1      24.600  70.455  25.383  1.00  0.00     0.080 N 
HETATM  157  C   UNL     1      24.162  70.267  24.000  1.00  0.00     0.309 C 
HETATM  158  C   UNL     1      23.615  69.848  26.287  1.00  0.00     0.309 C 
ENDBRANCH 155 156
ENDBRANCH 154 155
ENDBRANCH 152 154
ENDBRANCH 149 152
ENDBRANCH 148 149
ENDBRANCH 146 148
BRANCH 146 159
HETATM  159  C   UNL     1      29.416  71.277  27.558  1.00  0.00     0.137 C 
HETATM  160  O   UNL     1      30.138  72.181  27.124  1.00  0.00    -0.297 OA
BRANCH 159 161
HETATM  161  C   UNL     1      28.289  71.622  28.506  1.00  0.00     0.109 C 
BRANCH 161 162
HETATM  162  C   UNL     1      28.030  73.126  28.621  1.00  0.00     0.279 C 
BRANCH 162 163
HETATM  163  N   UNL     1      26.665  73.342  29.148  1.00  0.00     0.080 N 
HETATM  164  C   UNL     1      25.650  72.794  28.253  1.00  0.00     0.309 C 
HETATM  165  C   UNL     1      26.410  74.766  29.376  1.00  0.00     0.309 C 
ENDBRANCH 162 163
ENDBRANCH 161 162
ENDBRANCH 159 161
ENDBRANCH 146 159
ENDBRANCH 145 146
ENDBRANCH 136 145
ENDBRANCH 135 136
ENDBRANCH 126 135
ENDBRANCH 125 126
ENDBRANCH 123 125
BRANCH 123 166
HETATM  166  C   UNL     1      38.715  68.443  28.296  1.00  0.00     0.141 C 
HETATM  167  O   UNL     1      39.325  68.616  27.232  1.00  0.00    -0.297 OA
BRANCH 166 168
HETATM  168  C   UNL     1      39.318  67.511  29.318  1.00  0.00     0.110 C 
BRANCH 168 169
HETATM  169  C   UNL     1      39.813  66.261  28.626  1.00  0.00     0.279 C 
BRANCH 169 170
HETATM  170  N   UNL     1      39.537  64.999  29.327  1.00  0.00     0.080 N 
HETATM  171  C   UNL     1      38.765  65.233  30.548  1.00  0.00     0.309 C 
HETATM  172  C   UNL     1      40.804  64.353  29.685  1.00  0.00     0.309 C 
ENDBRANCH 169 170
ENDBRANCH 168 169
ENDBRANCH 166 168
ENDBRANCH 123 166
ENDBRANCH 122 123
ENDBRANCH 120 122
ENDBRANCH 100 120
BRANCH 101 173
HETATM  173  O   UNL     1      39.665  72.138  27.959  1.00  0.00    -0.391 OA
HETATM  174  H   UNL     1      39.207  71.286  27.816  1.00  0.00     0.210 HD
ENDBRANCH 101 173
ENDBRANCH  95  96
ENDBRANCH   5  95
TORSDOF 88
ENDMDL
MODEL 7
REMARK VINA RESULT:      -4.3      3.462      8.452
REMARK WARNING: 32 MAX_TORS EXCEEDED!!!
REMARK  88 active torsions:
REMARK  status: ('A' for Active; 'I' for Inactive)
REMARK    1  A    between atoms: C_1  and  O_28 
REMARK    2  A    between atoms: C_2  and  C_6 
REMARK    3  A    between atoms: C_3  and  O_8 
REMARK    4  A    between atoms: C_4  and  N_10 
REMARK    5  A    between atoms: C_5  and  O_11 
REMARK    6  A    between atoms: C_6  and  O_65 
REMARK    7  A    between atoms: O_11  and  C_18 
REMARK    8  A    between atoms: O_13  and  C_16 
REMARK    9  A    between atoms: C_15  and  C_21 
REMARK   10  A    between atoms: O_17  and  C_20 
REMARK   11  A    between atoms: O_17  and  C_39 
REMARK   12  A    between atoms: N_19  and  C_22 
REMARK   13  A    between atoms: N_19  and  C_161 
REMARK   14  A    between atoms: C_21  and  O_67 
REMARK   15  A    between atoms: O_24  and  C_27 
REMARK   16  A    between atoms: C_26  and  C_32 
REMARK   17  A    between atoms: O_28  and  C_31 
REMARK   18  A    between atoms: C_29  and  O_49 
REMARK   19  A    between atoms: N_30  and  C_33 
REMARK   20  A    between atoms: C_32  and  O_63 
REMARK   21  A    between atoms: O_35  and  C_38 
REMARK   22  A    between atoms: C_37  and  C_42 
REMARK   23  A    between atoms: N_40  and  C_43 
REMARK   24  A    between atoms: C_42  and  O_69 
REMARK   25  A    between atoms: O_45  and  C_48 
REMARK   26  A    between atoms: C_47  and  C_53 
REMARK   27  A    between atoms: O_49  and  C_52 
REMARK   28  A    between atoms: N_51  and  C_54 
REMARK   29  A    between atoms: N_51  and  C_71 
REMARK   30  A    between atoms: C_53  and  O_61 
REMARK   31  A    between atoms: C_71  and  C_73 
REMARK   32  A    between atoms: C_73  and  C_74 
REMARK   33  A    between atoms: C_73  and  C_83 
REMARK   34  A    between atoms: C_74  and  C_75 
REMARK   35  A    between atoms: C_75  and  C_76 
REMARK   36  A    between atoms: C_75  and  C_87 
REMARK   37  A    between atoms: C_76  and  C_77 
REMARK   38  A    between atoms: C_77  and  C_78 
REMARK   39  A    between atoms: C_77  and  C_91 
REMARK   40  A    between atoms: C_78  and  C_79 
REMARK   41  A    between atoms: C_79  and  C_80 
REMARK   42  A    between atoms: C_79  and  C_95 
REMARK   43  A    between atoms: C_80  and  C_81 
REMARK   44  A    between atoms: C_81  and  C_99 
REMARK   45  A    between atoms: C_83  and  C_84 
REMARK   46  A    between atoms: C_84  and  C_85 
REMARK   47  A    between atoms: C_85  and  N_103 
REMARK   48  A    between atoms: C_87  and  C_88 
REMARK   49  A    between atoms: C_88  and  C_89 
REMARK   50  A    between atoms: C_89  and  N_104 
REMARK   51  A    between atoms: C_91  and  C_92 
REMARK   52  A    between atoms: C_92  and  C_93 
REMARK   53  A    between atoms: C_93  and  N_105 
REMARK   54  A    between atoms: C_95  and  C_96 
REMARK   55  A    between atoms: C_96  and  C_97 
REMARK   56  A    between atoms: C_97  and  N_106 
REMARK   57  A    between atoms: C_99  and  C_100 
REMARK   58  A    between atoms: C_100  and  C_101 
REMARK   59  A    between atoms: C_101  and  N_107 
REMARK   60  A    between atoms: N_126  and  C_129 
REMARK   61  A    between atoms: C_129  and  C_135 
REMARK   62  A    between atoms: C_130  and  C_135 
REMARK   63  A    between atoms: C_130  and  C_142 
REMARK   64  A    between atoms: N_132  and  C_139 
REMARK   65  A    between atoms: C_136  and  C_137 
REMARK   66  A    between atoms: C_136  and  C_146 
REMARK   67  A    between atoms: C_137  and  C_139 
REMARK   68  A    between atoms: N_141  and  C_152 
REMARK   69  A    between atoms: C_142  and  C_153 
REMARK   70  A    between atoms: C_142  and  C_159 
REMARK   71  A    between atoms: C_144  and  C_152 
REMARK   72  A    between atoms: C_144  and  C_156 
REMARK   73  A    between atoms: C_146  and  C_162 
REMARK   74  A    between atoms: C_146  and  C_153 
REMARK   75  A    between atoms: C_148  and  C_156 
REMARK   76  A    between atoms: C_148  and  C_149 
REMARK   77  A    between atoms: C_149  and  C_163 
REMARK   78  A    between atoms: C_150  and  C_161 
REMARK   79  A    between atoms: C_150  and  C_159 
REMARK   80  A    between atoms: C_150  and  C_160 
REMARK   81  A    between atoms: C_151  and  N_157 
REMARK   82  A    between atoms: C_151  and  C_154 
REMARK   83  A    between atoms: C_154  and  C_160 
REMARK   84  A    between atoms: C_162  and  C_163 
REMARK   85  A    between atoms: C_163  and  C_169 
REMARK   86  A    between atoms: C_166  and  C_171 
REMARK   87  A    between atoms: C_166  and  C_169 
REMARK   88  A    between atoms: N_167  and  C_171 
ROOT
HETATM    1  C   UNL     1      24.287  68.928  26.537  1.00  0.00     0.186 C 
HETATM    2  C   UNL     1      24.409  69.437  25.084  1.00  0.00     0.179 C 
HETATM    3  C   UNL     1      22.917  68.260  26.773  1.00  0.00     0.187 C 
HETATM    4  C   UNL     1      21.763  69.099  26.173  1.00  0.00     0.303 C 
HETATM    5  C   UNL     1      22.019  69.394  24.654  1.00  0.00     0.296 C 
HETATM    6  O   UNL     1      23.327  68.967  24.258  1.00  0.00    -0.349 OA
ENDROOT
BRANCH   1   7
HETATM    7  O   UNL     1      25.327  67.966  26.766  1.00  0.00    -0.348 OA
BRANCH   7   8
HETATM    8  C   UNL     1      25.696  67.784  28.141  1.00  0.00     0.296 C 
HETATM    9  O   UNL     1      26.999  68.342  28.288  1.00  0.00    -0.349 OA
HETATM   10  C   UNL     1      27.701  68.045  29.506  1.00  0.00     0.179 C 
HETATM   11  C   UNL     1      27.564  66.590  30.000  1.00  0.00     0.186 C 
HETATM   12  C   UNL     1      26.939  65.687  28.943  1.00  0.00     0.187 C 
HETATM   13  C   UNL     1      25.585  66.267  28.521  1.00  0.00     0.303 C 
BRANCH  10  14
HETATM   14  C   UNL     1      27.267  69.060  30.576  1.00  0.00     0.198 C 
BRANCH  14  15
HETATM   15  O   UNL     1      27.679  68.627  31.872  1.00  0.00    -0.398 OA
HETATM   16  H   UNL     1      26.895  68.691  32.451  1.00  0.00     0.209 HD
ENDBRANCH  14  15
ENDBRANCH  10  14
BRANCH  11  17
HETATM   17  O   UNL     1      28.867  66.053  30.281  1.00  0.00    -0.348 OA
BRANCH  17  18
HETATM   18  C   UNL     1      29.020  65.620  31.628  1.00  0.00     0.296 C 
HETATM   19  O   UNL     1      27.804  65.884  32.339  1.00  0.00    -0.351 OA
HETATM   20  C   UNL     1      27.697  65.109  33.550  1.00  0.00     0.150 C 
HETATM   21  C   UNL     1      29.078  64.923  34.206  1.00  0.00     0.068 C 
HETATM   22  C   UNL     1      29.964  66.140  33.896  1.00  0.00     0.158 C 
HETATM   23  C   UNL     1      30.241  66.305  32.364  1.00  0.00     0.303 C 
BRANCH  20  24
HETATM   24  C   UNL     1      26.913  63.813  33.299  1.00  0.00     0.196 C 
BRANCH  24  25
HETATM   25  O   UNL     1      27.776  62.680  33.237  1.00  0.00    -0.398 OA
HETATM   26  H   UNL     1      28.576  62.971  32.762  1.00  0.00     0.209 HD
ENDBRANCH  24  25
ENDBRANCH  20  24
BRANCH  22  27
HETATM   27  O   UNL     1      29.277  67.298  34.400  1.00  0.00    -0.393 OA
HETATM   28  H   UNL     1      29.107  67.890  33.641  1.00  0.00     0.210 HD
ENDBRANCH  22  27
BRANCH  23  29
HETATM   29  N   UNL     1      30.433  67.743  31.993  1.00  0.00     0.096 N 
HETATM   30  H   UNL     1      30.407  68.258  32.872  1.00  0.00     0.316 HD
BRANCH  29  31
HETATM   31  C   UNL     1      31.644  68.110  31.212  1.00  0.00     0.287 C 
BRANCH  31  32
HETATM   32  C   UNL     1      31.984  69.688  31.179  1.00  0.00     0.044 C 
HETATM   33  C   UNL     1      30.682  70.476  30.973  1.00  0.00     0.025 C 
BRANCH  32  34
HETATM   34  C   UNL     1      33.084  70.067  30.047  1.00  0.00     0.035 C 
BRANCH  34  35
HETATM   35  C   UNL     1      33.061  69.548  28.502  1.00  0.00     0.019 C 
HETATM   36  C   UNL     1      32.853  68.016  28.648  1.00  0.00     0.023 C 
BRANCH  35  37
HETATM   37  C   UNL     1      34.498  69.863  27.818  1.00  0.00     0.033 C 
BRANCH  37  38
HETATM   38  C   UNL     1      35.994  69.769  28.485  1.00  0.00     0.019 C 
HETATM   39  C   UNL     1      36.952  69.073  27.503  1.00  0.00     0.023 C 
BRANCH  38  40
HETATM   40  C   UNL     1      35.821  68.858  29.792  1.00  0.00     0.033 C 
BRANCH  40  41
HETATM   41  C   UNL     1      36.425  67.389  30.149  1.00  0.00     0.019 C 
HETATM   42  C   UNL     1      36.324  66.593  28.820  1.00  0.00     0.023 C 
BRANCH  41  43
HETATM   43  C   UNL     1      37.893  67.315  30.689  1.00  0.00     0.033 C 
BRANCH  43  44
HETATM   44  C   UNL     1      38.818  66.038  30.727  1.00  0.00     0.014 C 
HETATM   45  C   UNL     1      37.904  64.848  31.129  1.00  0.00     0.023 C 
HETATM   46  C   UNL     1      39.908  66.070  31.816  1.00  0.00     0.023 C 
BRANCH  44  47
HETATM   47  C   UNL     1      39.502  65.765  29.365  1.00  0.00     0.136 C 
HETATM   48  O   UNL     1      39.656  66.685  28.556  1.00  0.00    -0.297 OA
BRANCH  47  49
HETATM   49  C   UNL     1      39.900  64.345  28.969  1.00  0.00     0.109 C 
BRANCH  49  50
HETATM   50  C   UNL     1      41.405  64.268  28.663  1.00  0.00     0.279 C 
BRANCH  50  51
HETATM   51  N   UNL     1      42.159  63.518  29.689  1.00  0.00     0.080 N 
HETATM   52  C   UNL     1      42.976  64.399  30.524  1.00  0.00     0.309 C 
HETATM   53  C   UNL     1      41.237  62.762  30.544  1.00  0.00     0.309 C 
ENDBRANCH  50  51
ENDBRANCH  49  50
ENDBRANCH  47  49
ENDBRANCH  44  47
ENDBRANCH  43  44
ENDBRANCH  41  43
BRANCH  41  54
HETATM   54  C   UNL     1      35.416  66.708  31.131  1.00  0.00     0.137 C 
HETATM   55  O   UNL     1      34.672  65.804  30.766  1.00  0.00    -0.297 OA
BRANCH  54  56
HETATM   56  C   UNL     1      35.224  67.321  32.503  1.00  0.00     0.109 C 
BRANCH  56  57
HETATM   57  C   UNL     1      35.180  66.279  33.621  1.00  0.00     0.279 C 
BRANCH  57  58
HETATM   58  N   UNL     1      33.775  66.072  34.033  1.00  0.00     0.080 N 
HETATM   59  C   UNL     1      33.386  64.668  33.879  1.00  0.00     0.309 C 
HETATM   60  C   UNL     1      33.553  66.500  35.410  1.00  0.00     0.309 C 
ENDBRANCH  57  58
ENDBRANCH  56  57
ENDBRANCH  54  56
ENDBRANCH  41  54
ENDBRANCH  40  41
ENDBRANCH  38  40
BRANCH  38  61
HETATM   61  C   UNL     1      36.681  71.097  28.901  1.00  0.00     0.137 C 
HETATM   62  O   UNL     1      36.786  72.016  28.080  1.00  0.00    -0.297 OA
BRANCH  61  63
HETATM   63  C   UNL     1      37.205  71.323  30.298  1.00  0.00     0.109 C 
BRANCH  63  64
HETATM   64  C   UNL     1      38.150  72.527  30.423  1.00  0.00     0.279 C 
BRANCH  64  65
HETATM   65  N   UNL     1      37.833  73.351  31.610  1.00  0.00     0.080 N 
HETATM   66  C   UNL     1      38.662  74.558  31.660  1.00  0.00     0.309 C 
HETATM   67  C   UNL     1      36.418  73.735  31.592  1.00  0.00     0.309 C 
ENDBRANCH  64  65
ENDBRANCH  63  64
ENDBRANCH  61  63
ENDBRANCH  38  61
ENDBRANCH  37  38
ENDBRANCH  35  37
BRANCH  35  68
HETATM   68  C   UNL     1      31.976  70.110  27.534  1.00  0.00     0.137 C 
HETATM   69  O   UNL     1      32.282  71.050  26.791  1.00  0.00    -0.297 OA
BRANCH  68  70
HETATM   70  C   UNL     1      30.542  69.563  27.496  1.00  0.00     0.109 C 
BRANCH  70  71
HETATM   71  C   UNL     1      29.513  70.614  27.012  1.00  0.00     0.279 C 
BRANCH  71  72
HETATM   72  N   UNL     1      28.754  71.403  28.004  1.00  0.00     0.080 N 
HETATM   73  C   UNL     1      29.322  72.720  28.243  1.00  0.00     0.309 C 
HETATM   74  C   UNL     1      27.373  71.576  27.529  1.00  0.00     0.309 C 
ENDBRANCH  71  72
ENDBRANCH  70  71
ENDBRANCH  68  70
ENDBRANCH  35  68
ENDBRANCH  34  35
ENDBRANCH  32  34
BRANCH  32  75
HETATM   75  C   UNL     1      32.674  69.930  32.545  1.00  0.00     0.138 C 
HETATM   76  O   UNL     1      32.221  69.416  33.577  1.00  0.00    -0.297 OA
BRANCH  75  77
HETATM   77  C   UNL     1      33.823  70.905  32.677  1.00  0.00     0.109 C 
BRANCH  77  78
HETATM   78  C   UNL     1      33.271  72.285  32.983  1.00  0.00     0.279 C 
BRANCH  78  79
HETATM   79  N   UNL     1      33.581  72.787  34.329  1.00  0.00     0.080 N 
HETATM   80  C   UNL     1      34.738  72.097  34.901  1.00  0.00     0.309 C 
HETATM   81  C   UNL     1      32.419  72.610  35.206  1.00  0.00     0.309 C 
ENDBRANCH  78  79
ENDBRANCH  77  78
ENDBRANCH  75  77
ENDBRANCH  32  75
ENDBRANCH  31  32
ENDBRANCH  29  31
ENDBRANCH  23  29
ENDBRANCH  17  18
ENDBRANCH  11  17
BRANCH  12  82
HETATM   82  O   UNL     1      27.820  65.533  27.822  1.00  0.00    -0.391 OA
HETATM   83  H   UNL     1      27.358  65.971  27.077  1.00  0.00     0.210 HD
ENDBRANCH  12  82
BRANCH  13  84
HETATM   84  N   UNL     1      24.958  65.393  27.508  1.00  0.00     0.090 N 
HETATM   85  H   UNL     1      24.429  66.018  26.890  1.00  0.00     0.313 HD
HETATM   86  H   UNL     1      24.228  64.835  27.969  1.00  0.00     0.313 HD
ENDBRANCH  13  84
ENDBRANCH   7   8
ENDBRANCH   1   7
BRANCH   2  87
HETATM   87  C   UNL     1      24.558  70.969  25.048  1.00  0.00     0.198 C 
BRANCH  87  88
HETATM   88  O   UNL     1      24.911  71.432  23.751  1.00  0.00    -0.398 OA
HETATM   89  H   UNL     1      25.570  70.820  23.378  1.00  0.00     0.209 HD
ENDBRANCH  87  88
ENDBRANCH   2  87
BRANCH   3  90
HETATM   90  O   UNL     1      22.895  66.931  26.229  1.00  0.00    -0.391 OA
HETATM   91  H   UNL     1      23.418  66.367  26.836  1.00  0.00     0.210 HD
ENDBRANCH   3  90
BRANCH   4  92
HETATM   92  N   UNL     1      20.447  68.467  26.428  1.00  0.00     0.090 N 
HETATM   93  H   UNL     1      20.534  67.814  27.211  1.00  0.00     0.313 HD
HETATM   94  H   UNL     1      20.270  67.842  25.631  1.00  0.00     0.313 HD
ENDBRANCH   4  92
BRANCH   5  95
HETATM   95  O   UNL     1      21.087  68.678  23.816  1.00  0.00    -0.348 OA
BRANCH  95  96
HETATM   96  C   UNL     1      20.737  69.305  22.548  1.00  0.00     0.186 C 
HETATM   97  C   UNL     1      21.545  68.680  21.397  1.00  0.00     0.180 C 
HETATM   98  O   UNL     1      20.722  68.156  20.355  1.00  0.00    -0.349 OA
HETATM   99  C   UNL     1      19.657  68.978  19.882  1.00  0.00     0.286 C 
HETATM  100  C   UNL     1      18.620  69.478  20.982  1.00  0.00     0.167 C 
HETATM  101  C   UNL     1      19.212  69.039  22.354  1.00  0.00     0.177 C 
BRANCH  97 102
HETATM  102  C   UNL     1      22.581  69.632  20.780  1.00  0.00     0.198 C 
BRANCH 102 103
HETATM  103  O   UNL     1      23.790  69.608  21.537  1.00  0.00    -0.398 OA
HETATM  104  H   UNL     1      23.755  68.831  22.129  1.00  0.00     0.209 HD
ENDBRANCH 102 103
ENDBRANCH  97 102
BRANCH  99 105
HETATM  105  O   UNL     1      18.997  68.144  18.930  1.00  0.00    -0.348 OA
BRANCH 105 106
HETATM  106  C   UNL     1      19.847  67.344  18.121  1.00  0.00     0.186 C 
HETATM  107  C   UNL     1      19.344  65.886  18.108  1.00  0.00     0.176 C 
HETATM  108  O   UNL     1      19.603  65.224  16.847  1.00  0.00    -0.379 OA
HETATM  109  C   UNL     1      20.835  65.621  16.236  1.00  0.00     0.206 C 
HETATM  110  C   UNL     1      20.810  67.107  15.814  1.00  0.00     0.272 C 
HETATM  111  C   UNL     1      19.816  67.905  16.687  1.00  0.00     0.184 C 
BRANCH 107 112
HETATM  112  C   UNL     1      19.931  65.038  19.243  1.00  0.00     0.198 C 
BRANCH 112 113
HETATM  113  O   UNL     1      19.515  65.559  20.505  1.00  0.00    -0.398 OA
HETATM  114  H   UNL     1      18.542  65.641  20.460  1.00  0.00     0.209 HD
ENDBRANCH 112 113
ENDBRANCH 107 112
BRANCH 110 115
HETATM  115  N   UNL     1      20.499  67.266  14.381  1.00  0.00     0.087 N 
HETATM  116  H   UNL     1      19.523  67.559  14.299  1.00  0.00     0.313 HD
HETATM  117  H   UNL     1      20.485  66.329  13.967  1.00  0.00     0.313 HD
ENDBRANCH 110 115
BRANCH 111 118
HETATM  118  O   UNL     1      18.496  67.849  16.112  1.00  0.00    -0.391 OA
HETATM  119  H   UNL     1      18.084  67.014  16.401  1.00  0.00     0.210 HD
ENDBRANCH 111 118
ENDBRANCH 105 106
ENDBRANCH  99 105
BRANCH 100 120
HETATM  120  N   UNL     1      17.245  68.949  20.676  1.00  0.00    -0.389 N 
HETATM  121  H   UNL     1      17.381  68.200  19.990  1.00  0.00     0.159 HD
BRANCH 120 122
HETATM  122  C   UNL     1      16.119  68.812  21.610  1.00  0.00     0.073 C 
BRANCH 122 123
HETATM  123  C   UNL     1      14.665  68.351  21.112  1.00  0.00     0.049 C 
HETATM  124  C   UNL     1      14.294  67.145  21.991  1.00  0.00     0.029 C 
BRANCH 123 125
HETATM  125  C   UNL     1      14.373  68.017  19.531  1.00  0.00     0.039 C 
BRANCH 125 126
HETATM  126  C   UNL     1      14.896  66.631  18.776  1.00  0.00     0.019 C 
HETATM  127  C   UNL     1      15.661  67.226  17.561  1.00  0.00     0.023 C 
BRANCH 126 128
HETATM  128  C   UNL     1      15.841  65.672  19.565  1.00  0.00     0.137 C 
HETATM  129  O   UNL     1      16.807  66.165  20.161  1.00  0.00    -0.297 OA
BRANCH 128 130
HETATM  130  C   UNL     1      15.624  64.147  19.598  1.00  0.00     0.109 C 
BRANCH 130 131
HETATM  131  C   UNL     1      16.693  63.364  18.801  1.00  0.00     0.279 C 
BRANCH 131 132
HETATM  132  N   UNL     1      17.018  61.975  19.181  1.00  0.00     0.080 N 
HETATM  133  C   UNL     1      17.460  61.241  17.988  1.00  0.00     0.309 C 
HETATM  134  C   UNL     1      15.897  61.262  19.768  1.00  0.00     0.309 C 
ENDBRANCH 131 132
ENDBRANCH 130 131
ENDBRANCH 128 130
ENDBRANCH 126 128
BRANCH 126 135
HETATM  135  C   UNL     1      13.679  65.663  18.247  1.00  0.00     0.033 C 
BRANCH 135 136
HETATM  136  C   UNL     1      12.406  66.084  17.248  1.00  0.00     0.019 C 
HETATM  137  C   UNL     1      11.116  66.133  18.085  1.00  0.00     0.023 C 
BRANCH 136 138
HETATM  138  C   UNL     1      12.483  67.433  16.477  1.00  0.00     0.137 C 
HETATM  139  O   UNL     1      12.851  67.442  15.296  1.00  0.00    -0.297 OA
BRANCH 138 140
HETATM  140  C   UNL     1      12.109  68.746  17.119  1.00  0.00     0.109 C 
BRANCH 140 141
HETATM  141  C   UNL     1      12.972  69.943  16.681  1.00  0.00     0.279 C 
BRANCH 141 142
HETATM  142  N   UNL     1      12.151  71.044  16.131  1.00  0.00     0.080 N 
HETATM  143  C   UNL     1      12.471  72.304  16.810  1.00  0.00     0.309 C 
HETATM  144  C   UNL     1      10.719  70.770  16.271  1.00  0.00     0.309 C 
ENDBRANCH 141 142
ENDBRANCH 140 141
ENDBRANCH 138 140
ENDBRANCH 136 138
BRANCH 136 145
HETATM  145  C   UNL     1      12.264  64.919  16.147  1.00  0.00     0.033 C 
BRANCH 145 146
HETATM  146  C   UNL     1      13.404  64.191  15.212  1.00  0.00     0.019 C 
HETATM  147  C   UNL     1      12.760  64.114  13.801  1.00  0.00     0.023 C 
BRANCH 146 148
HETATM  148  C   UNL     1      14.823  64.858  15.092  1.00  0.00     0.033 C 
BRANCH 148 149
HETATM  149  C   UNL     1      15.996  64.425  14.124  1.00  0.00     0.014 C 
HETATM  150  C   UNL     1      15.322  63.877  12.835  1.00  0.00     0.023 C 
HETATM  151  C   UNL     1      16.850  63.245  14.636  1.00  0.00     0.023 C 
BRANCH 149 152
HETATM  152  C   UNL     1      16.954  65.594  13.777  1.00  0.00     0.136 C 
HETATM  153  O   UNL     1      18.163  65.488  14.004  1.00  0.00    -0.297 OA
BRANCH 152 154
HETATM  154  C   UNL     1      16.404  66.917  13.247  1.00  0.00     0.109 C 
BRANCH 154 155
HETATM  155  C   UNL     1      16.722  67.083  11.751  1.00  0.00     0.279 C 
BRANCH 155 156
HETATM  156  N   UNL     1      15.518  67.356  10.936  1.00  0.00     0.080 N 
HETATM  157  C   UNL     1      15.155  68.774  10.947  1.00  0.00     0.309 C 
HETATM  158  C   UNL     1      15.736  66.926   9.550  1.00  0.00     0.309 C 
ENDBRANCH 155 156
ENDBRANCH 154 155
ENDBRANCH 152 154
ENDBRANCH 149 152
ENDBRANCH 148 149
ENDBRANCH 146 148
BRANCH 146 159
HETATM  159  C   UNL     1      13.524  62.713  15.705  1.00  0.00     0.137 C 
HETATM  160  O   UNL     1      14.094  62.428  16.763  1.00  0.00    -0.297 OA
BRANCH 159 161
HETATM  161  C   UNL     1      13.105  61.601  14.768  1.00  0.00     0.109 C 
BRANCH 161 162
HETATM  162  C   UNL     1      14.176  60.524  14.585  1.00  0.00     0.279 C 
BRANCH 162 163
HETATM  163  N   UNL     1      14.546  60.450  13.155  1.00  0.00     0.080 N 
HETATM  164  C   UNL     1      13.393  60.675  12.287  1.00  0.00     0.309 C 
HETATM  165  C   UNL     1      15.162  59.160  12.838  1.00  0.00     0.309 C 
ENDBRANCH 162 163
ENDBRANCH 161 162
ENDBRANCH 159 161
ENDBRANCH 146 159
ENDBRANCH 145 146
ENDBRANCH 136 145
ENDBRANCH 135 136
ENDBRANCH 126 135
ENDBRANCH 125 126
ENDBRANCH 123 125
BRANCH 123 166
HETATM  166  C   UNL     1      13.882  69.669  21.381  1.00  0.00     0.141 C 
HETATM  167  O   UNL     1      14.458  70.697  21.759  1.00  0.00    -0.297 OA
BRANCH 166 168
HETATM  168  C   UNL     1      12.375  69.684  21.304  1.00  0.00     0.110 C 
BRANCH 168 169
HETATM  169  C   UNL     1      11.914  71.034  20.802  1.00  0.00     0.279 C 
BRANCH 169 170
HETATM  170  N   UNL     1      10.709  71.017  19.959  1.00  0.00     0.080 N 
HETATM  171  C   UNL     1      10.201  72.371  19.738  1.00  0.00     0.309 C 
HETATM  172  C   UNL     1       9.667  70.221  20.616  1.00  0.00     0.309 C 
ENDBRANCH 169 170
ENDBRANCH 168 169
ENDBRANCH 166 168
ENDBRANCH 123 166
ENDBRANCH 122 123
ENDBRANCH 120 122
ENDBRANCH 100 120
BRANCH 101 173
HETATM  173  O   UNL     1      18.967  67.628  22.543  1.00  0.00    -0.391 OA
HETATM  174  H   UNL     1      19.563  67.340  23.263  1.00  0.00     0.210 HD
ENDBRANCH 101 173
ENDBRANCH  95  96
ENDBRANCH   5  95
TORSDOF 88
ENDMDL
MODEL 8
REMARK VINA RESULT:      -4.2      2.915      7.926
REMARK WARNING: 32 MAX_TORS EXCEEDED!!!
REMARK  88 active torsions:
REMARK  status: ('A' for Active; 'I' for Inactive)
REMARK    1  A    between atoms: C_1  and  O_28 
REMARK    2  A    between atoms: C_2  and  C_6 
REMARK    3  A    between atoms: C_3  and  O_8 
REMARK    4  A    between atoms: C_4  and  N_10 
REMARK    5  A    between atoms: C_5  and  O_11 
REMARK    6  A    between atoms: C_6  and  O_65 
REMARK    7  A    between atoms: O_11  and  C_18 
REMARK    8  A    between atoms: O_13  and  C_16 
REMARK    9  A    between atoms: C_15  and  C_21 
REMARK   10  A    between atoms: O_17  and  C_20 
REMARK   11  A    between atoms: O_17  and  C_39 
REMARK   12  A    between atoms: N_19  and  C_22 
REMARK   13  A    between atoms: N_19  and  C_161 
REMARK   14  A    between atoms: C_21  and  O_67 
REMARK   15  A    between atoms: O_24  and  C_27 
REMARK   16  A    between atoms: C_26  and  C_32 
REMARK   17  A    between atoms: O_28  and  C_31 
REMARK   18  A    between atoms: C_29  and  O_49 
REMARK   19  A    between atoms: N_30  and  C_33 
REMARK   20  A    between atoms: C_32  and  O_63 
REMARK   21  A    between atoms: O_35  and  C_38 
REMARK   22  A    between atoms: C_37  and  C_42 
REMARK   23  A    between atoms: N_40  and  C_43 
REMARK   24  A    between atoms: C_42  and  O_69 
REMARK   25  A    between atoms: O_45  and  C_48 
REMARK   26  A    between atoms: C_47  and  C_53 
REMARK   27  A    between atoms: O_49  and  C_52 
REMARK   28  A    between atoms: N_51  and  C_54 
REMARK   29  A    between atoms: N_51  and  C_71 
REMARK   30  A    between atoms: C_53  and  O_61 
REMARK   31  A    between atoms: C_71  and  C_73 
REMARK   32  A    between atoms: C_73  and  C_74 
REMARK   33  A    between atoms: C_73  and  C_83 
REMARK   34  A    between atoms: C_74  and  C_75 
REMARK   35  A    between atoms: C_75  and  C_76 
REMARK   36  A    between atoms: C_75  and  C_87 
REMARK   37  A    between atoms: C_76  and  C_77 
REMARK   38  A    between atoms: C_77  and  C_78 
REMARK   39  A    between atoms: C_77  and  C_91 
REMARK   40  A    between atoms: C_78  and  C_79 
REMARK   41  A    between atoms: C_79  and  C_80 
REMARK   42  A    between atoms: C_79  and  C_95 
REMARK   43  A    between atoms: C_80  and  C_81 
REMARK   44  A    between atoms: C_81  and  C_99 
REMARK   45  A    between atoms: C_83  and  C_84 
REMARK   46  A    between atoms: C_84  and  C_85 
REMARK   47  A    between atoms: C_85  and  N_103 
REMARK   48  A    between atoms: C_87  and  C_88 
REMARK   49  A    between atoms: C_88  and  C_89 
REMARK   50  A    between atoms: C_89  and  N_104 
REMARK   51  A    between atoms: C_91  and  C_92 
REMARK   52  A    between atoms: C_92  and  C_93 
REMARK   53  A    between atoms: C_93  and  N_105 
REMARK   54  A    between atoms: C_95  and  C_96 
REMARK   55  A    between atoms: C_96  and  C_97 
REMARK   56  A    between atoms: C_97  and  N_106 
REMARK   57  A    between atoms: C_99  and  C_100 
REMARK   58  A    between atoms: C_100  and  C_101 
REMARK   59  A    between atoms: C_101  and  N_107 
REMARK   60  A    between atoms: N_126  and  C_129 
REMARK   61  A    between atoms: C_129  and  C_135 
REMARK   62  A    between atoms: C_130  and  C_135 
REMARK   63  A    between atoms: C_130  and  C_142 
REMARK   64  A    between atoms: N_132  and  C_139 
REMARK   65  A    between atoms: C_136  and  C_137 
REMARK   66  A    between atoms: C_136  and  C_146 
REMARK   67  A    between atoms: C_137  and  C_139 
REMARK   68  A    between atoms: N_141  and  C_152 
REMARK   69  A    between atoms: C_142  and  C_153 
REMARK   70  A    between atoms: C_142  and  C_159 
REMARK   71  A    between atoms: C_144  and  C_152 
REMARK   72  A    between atoms: C_144  and  C_156 
REMARK   73  A    between atoms: C_146  and  C_162 
REMARK   74  A    between atoms: C_146  and  C_153 
REMARK   75  A    between atoms: C_148  and  C_156 
REMARK   76  A    between atoms: C_148  and  C_149 
REMARK   77  A    between atoms: C_149  and  C_163 
REMARK   78  A    between atoms: C_150  and  C_161 
REMARK   79  A    between atoms: C_150  and  C_159 
REMARK   80  A    between atoms: C_150  and  C_160 
REMARK   81  A    between atoms: C_151  and  N_157 
REMARK   82  A    between atoms: C_151  and  C_154 
REMARK   83  A    between atoms: C_154  and  C_160 
REMARK   84  A    between atoms: C_162  and  C_163 
REMARK   85  A    between atoms: C_163  and  C_169 
REMARK   86  A    between atoms: C_166  and  C_171 
REMARK   87  A    between atoms: C_166  and  C_169 
REMARK   88  A    between atoms: N_167  and  C_171 
ROOT
HETATM    1  C   UNL     1      24.808  69.149  26.751  1.00  0.00     0.186 C 
HETATM    2  C   UNL     1      24.970  69.856  25.387  1.00  0.00     0.179 C 
HETATM    3  C   UNL     1      23.698  68.079  26.686  1.00  0.00     0.187 C 
HETATM    4  C   UNL     1      22.438  68.607  25.959  1.00  0.00     0.303 C 
HETATM    5  C   UNL     1      22.804  69.161  24.538  1.00  0.00     0.296 C 
HETATM    6  O   UNL     1      24.223  69.199  24.348  1.00  0.00    -0.349 OA
ENDROOT
BRANCH   1   7
HETATM    7  O   UNL     1      26.053  68.519  27.083  1.00  0.00    -0.348 OA
BRANCH   7   8
HETATM    8  C   UNL     1      26.403  68.556  28.474  1.00  0.00     0.296 C 
HETATM    9  O   UNL     1      27.478  69.484  28.597  1.00  0.00    -0.349 OA
HETATM   10  C   UNL     1      28.185  69.500  29.847  1.00  0.00     0.179 C 
HETATM   11  C   UNL     1      28.462  68.110  30.458  1.00  0.00     0.186 C 
HETATM   12  C   UNL     1      28.172  66.987  29.469  1.00  0.00     0.187 C 
HETATM   13  C   UNL     1      26.726  67.108  28.977  1.00  0.00     0.303 C 
BRANCH  10  14
HETATM   14  C   UNL     1      27.430  70.418  30.821  1.00  0.00     0.198 C 
BRANCH  14  15
HETATM   15  O   UNL     1      27.125  71.666  30.198  1.00  0.00    -0.398 OA
HETATM   16  H   UNL     1      27.954  72.182  30.184  1.00  0.00     0.209 HD
ENDBRANCH  14  15
ENDBRANCH  10  14
BRANCH  11  17
HETATM   17  O   UNL     1      29.852  68.005  30.805  1.00  0.00    -0.348 OA
BRANCH  17  18
HETATM   18  C   UNL     1      30.069  67.699  32.178  1.00  0.00     0.296 C 
HETATM   19  O   UNL     1      29.798  68.869  32.960  1.00  0.00    -0.351 OA
HETATM   20  C   UNL     1      29.565  68.557  34.348  1.00  0.00     0.150 C 
HETATM   21  C   UNL     1      30.446  67.379  34.802  1.00  0.00     0.068 C 
HETATM   22  C   UNL     1      31.761  67.382  34.006  1.00  0.00     0.158 C 
HETATM   23  C   UNL     1      31.532  67.174  32.471  1.00  0.00     0.303 C 
BRANCH  20  24
HETATM   24  C   UNL     1      28.063  68.394  34.625  1.00  0.00     0.196 C 
BRANCH  24  25
HETATM   25  O   UNL     1      27.705  67.025  34.791  1.00  0.00    -0.398 OA
HETATM   26  H   UNL     1      28.500  66.573  35.130  1.00  0.00     0.209 HD
ENDBRANCH  24  25
ENDBRANCH  20  24
BRANCH  22  27
HETATM   27  O   UNL     1      32.391  68.653  34.243  1.00  0.00    -0.393 OA
HETATM   28  H   UNL     1      32.981  68.547  35.015  1.00  0.00     0.210 HD
ENDBRANCH  22  27
BRANCH  23  29
HETATM   29  N   UNL     1      32.588  67.861  31.661  1.00  0.00     0.096 N 
HETATM   30  H   UNL     1      33.063  68.489  32.308  1.00  0.00     0.316 HD
BRANCH  29  31
HETATM   31  C   UNL     1      33.575  67.018  30.935  1.00  0.00     0.287 C 
BRANCH  31  32
HETATM   32  C   UNL     1      34.174  67.673  29.587  1.00  0.00     0.044 C 
HETATM   33  C   UNL     1      34.974  66.606  28.825  1.00  0.00     0.025 C 
BRANCH  32  34
HETATM   34  C   UNL     1      35.082  68.987  29.882  1.00  0.00     0.035 C 
BRANCH  34  35
HETATM   35  C   UNL     1      36.493  68.991  30.699  1.00  0.00     0.019 C 
HETATM   36  C   UNL     1      36.051  69.255  32.164  1.00  0.00     0.023 C 
BRANCH  35  37
HETATM   37  C   UNL     1      37.413  70.212  30.155  1.00  0.00     0.033 C 
BRANCH  37  38
HETATM   38  C   UNL     1      37.032  71.379  29.066  1.00  0.00     0.019 C 
HETATM   39  C   UNL     1      36.916  70.757  27.665  1.00  0.00     0.023 C 
BRANCH  38  40
HETATM   40  C   UNL     1      38.264  72.405  29.093  1.00  0.00     0.033 C 
BRANCH  40  41
HETATM   41  C   UNL     1      39.425  72.637  30.208  1.00  0.00     0.019 C 
HETATM   42  C   UNL     1      38.727  72.348  31.565  1.00  0.00     0.023 C 
BRANCH  41  43
HETATM   43  C   UNL     1      40.727  71.773  30.099  1.00  0.00     0.033 C 
BRANCH  43  44
HETATM   44  C   UNL     1      41.447  71.319  28.772  1.00  0.00     0.014 C 
HETATM   45  C   UNL     1      40.614  70.134  28.207  1.00  0.00     0.023 C 
HETATM   46  C   UNL     1      42.857  70.732  28.978  1.00  0.00     0.023 C 
BRANCH  44  47
HETATM   47  C   UNL     1      41.544  72.462  27.732  1.00  0.00     0.136 C 
HETATM   48  O   UNL     1      40.840  72.434  26.718  1.00  0.00    -0.297 OA
BRANCH  47  49
HETATM   49  C   UNL     1      42.574  73.576  27.899  1.00  0.00     0.109 C 
BRANCH  49  50
HETATM   50  C   UNL     1      42.599  74.484  26.660  1.00  0.00     0.279 C 
BRANCH  50  51
HETATM   51  N   UNL     1      43.674  74.126  25.710  1.00  0.00     0.080 N 
HETATM   52  C   UNL     1      43.959  75.209  24.770  1.00  0.00     0.309 C 
HETATM   53  C   UNL     1      44.901  73.785  26.440  1.00  0.00     0.309 C 
ENDBRANCH  50  51
ENDBRANCH  49  50
ENDBRANCH  47  49
ENDBRANCH  44  47
ENDBRANCH  43  44
ENDBRANCH  41  43
BRANCH  41  54
HETATM   54  C   UNL     1      39.750  74.167  30.216  1.00  0.00     0.137 C 
HETATM   55  O   UNL     1      39.567  74.870  29.227  1.00  0.00    -0.297 OA
BRANCH  54  56
HETATM   56  C   UNL     1      40.490  74.738  31.408  1.00  0.00     0.109 C 
BRANCH  56  57
HETATM   57  C   UNL     1      41.802  75.423  31.023  1.00  0.00     0.279 C 
BRANCH  57  58
HETATM   58  N   UNL     1      41.728  76.851  31.399  1.00  0.00     0.080 N 
HETATM   59  C   UNL     1      42.952  77.276  32.085  1.00  0.00     0.309 C 
HETATM   60  C   UNL     1      41.492  77.700  30.235  1.00  0.00     0.309 C 
ENDBRANCH  57  58
ENDBRANCH  56  57
ENDBRANCH  54  56
ENDBRANCH  41  54
ENDBRANCH  40  41
ENDBRANCH  38  40
BRANCH  38  61
HETATM   61  C   UNL     1      35.723  72.180  29.301  1.00  0.00     0.137 C 
HETATM   62  O   UNL     1      34.999  72.465  28.340  1.00  0.00    -0.297 OA
BRANCH  61  63
HETATM   63  C   UNL     1      35.280  72.603  30.680  1.00  0.00     0.109 C 
BRANCH  63  64
HETATM   64  C   UNL     1      35.011  74.109  30.814  1.00  0.00     0.279 C 
BRANCH  64  65
HETATM   65  N   UNL     1      36.264  74.877  30.974  1.00  0.00     0.080 N 
HETATM   66  C   UNL     1      36.279  76.063  30.113  1.00  0.00     0.309 C 
HETATM   67  C   UNL     1      36.426  75.291  32.371  1.00  0.00     0.309 C 
ENDBRANCH  64  65
ENDBRANCH  63  64
ENDBRANCH  61  63
ENDBRANCH  38  61
ENDBRANCH  37  38
ENDBRANCH  35  37
BRANCH  35  68
HETATM   68  C   UNL     1      37.386  67.714  30.667  1.00  0.00     0.137 C 
HETATM   69  O   UNL     1      37.238  66.872  31.560  1.00  0.00    -0.297 OA
BRANCH  68  70
HETATM   70  C   UNL     1      38.459  67.484  29.593  1.00  0.00     0.109 C 
BRANCH  70  71
HETATM   71  C   UNL     1      38.621  65.990  29.220  1.00  0.00     0.279 C 
BRANCH  71  72
HETATM   72  N   UNL     1      39.787  65.235  29.724  1.00  0.00     0.080 N 
HETATM   73  C   UNL     1      39.428  64.190  30.670  1.00  0.00     0.309 C 
HETATM   74  C   UNL     1      40.484  64.609  28.590  1.00  0.00     0.309 C 
ENDBRANCH  71  72
ENDBRANCH  70  71
ENDBRANCH  68  70
ENDBRANCH  35  68
ENDBRANCH  34  35
ENDBRANCH  32  34
BRANCH  32  75
HETATM   75  C   UNL     1      32.911  68.182  28.850  1.00  0.00     0.138 C 
HETATM   76  O   UNL     1      31.922  67.448  28.718  1.00  0.00    -0.297 OA
BRANCH  75  77
HETATM   77  C   UNL     1      32.903  69.524  28.151  1.00  0.00     0.109 C 
BRANCH  77  78
HETATM   78  C   UNL     1      31.613  70.251  28.484  1.00  0.00     0.279 C 
BRANCH  78  79
HETATM   79  N   UNL     1      30.962  70.903  27.339  1.00  0.00     0.080 N 
HETATM   80  C   UNL     1      30.067  71.976  27.776  1.00  0.00     0.309 C 
HETATM   81  C   UNL     1      30.203  69.913  26.568  1.00  0.00     0.309 C 
ENDBRANCH  78  79
ENDBRANCH  77  78
ENDBRANCH  75  77
ENDBRANCH  32  75
ENDBRANCH  31  32
ENDBRANCH  29  31
ENDBRANCH  23  29
ENDBRANCH  17  18
ENDBRANCH  11  17
BRANCH  12  82
HETATM   82  O   UNL     1      29.105  67.017  28.380  1.00  0.00    -0.391 OA
HETATM   83  H   UNL     1      28.658  67.536  27.680  1.00  0.00     0.210 HD
ENDBRANCH  12  82
BRANCH  13  84
HETATM   84  N   UNL     1      26.426  66.014  28.030  1.00  0.00     0.090 N 
HETATM   85  H   UNL     1      25.552  66.283  27.564  1.00  0.00     0.313 HD
HETATM   86  H   UNL     1      26.164  65.180  28.571  1.00  0.00     0.313 HD
ENDBRANCH  13  84
ENDBRANCH   7   8
ENDBRANCH   1   7
BRANCH   2  87
HETATM   87  C   UNL     1      24.634  71.355  25.501  1.00  0.00     0.198 C 
BRANCH  87  88
HETATM   88  O   UNL     1      24.626  71.989  24.229  1.00  0.00    -0.398 OA
HETATM   89  H   UNL     1      24.454  72.938  24.364  1.00  0.00     0.209 HD
ENDBRANCH  87  88
ENDBRANCH   2  87
BRANCH   3  90
HETATM   90  O   UNL     1      24.175  66.886  26.042  1.00  0.00    -0.391 OA
HETATM   91  H   UNL     1      23.866  66.129  26.582  1.00  0.00     0.210 HD
ENDBRANCH   3  90
BRANCH   4  92
HETATM   92  N   UNL     1      21.366  67.585  25.926  1.00  0.00     0.090 N 
HETATM   93  H   UNL     1      20.641  67.879  25.267  1.00  0.00     0.313 HD
HETATM   94  H   UNL     1      20.884  67.646  26.833  1.00  0.00     0.313 HD
ENDBRANCH   4  92
BRANCH   5  95
HETATM   95  O   UNL     1      22.276  68.316  23.495  1.00  0.00    -0.348 OA
BRANCH  95  96
HETATM   96  C   UNL     1      21.755  68.991  22.312  1.00  0.00     0.186 C 
HETATM   97  C   UNL     1      22.273  68.311  21.032  1.00  0.00     0.180 C 
HETATM   98  O   UNL     1      21.226  67.880  20.164  1.00  0.00    -0.349 OA
HETATM   99  C   UNL     1      20.172  68.802  19.896  1.00  0.00     0.286 C 
HETATM  100  C   UNL     1      19.409  69.379  21.170  1.00  0.00     0.167 C 
HETATM  101  C   UNL     1      20.203  68.868  22.408  1.00  0.00     0.177 C 
BRANCH  97 102
HETATM  102  C   UNL     1      23.259  69.173  20.230  1.00  0.00     0.198 C 
BRANCH 102 103
HETATM  103  O   UNL     1      23.133  70.546  20.600  1.00  0.00    -0.398 OA
HETATM  104  H   UNL     1      22.758  70.577  21.502  1.00  0.00     0.209 HD
ENDBRANCH 102 103
ENDBRANCH  97 102
BRANCH  99 105
HETATM  105  O   UNL     1      19.272  68.046  19.087  1.00  0.00    -0.348 OA
BRANCH 105 106
HETATM  106  C   UNL     1      19.869  67.052  18.268  1.00  0.00     0.186 C 
HETATM  107  C   UNL     1      18.958  65.810  18.194  1.00  0.00     0.176 C 
HETATM  108  O   UNL     1      19.046  65.136  16.916  1.00  0.00    -0.379 OA
HETATM  109  C   UNL     1      20.358  65.165  16.344  1.00  0.00     0.206 C 
HETATM  110  C   UNL     1      20.788  66.602  15.975  1.00  0.00     0.272 C 
HETATM  111  C   UNL     1      20.050  67.635  16.854  1.00  0.00     0.184 C 
BRANCH 107 112
HETATM  112  C   UNL     1      19.231  64.795  19.311  1.00  0.00     0.198 C 
BRANCH 112 113
HETATM  113  O   UNL     1      19.974  65.415  20.360  1.00  0.00    -0.398 OA
HETATM  114  H   UNL     1      19.319  65.708  21.023  1.00  0.00     0.209 HD
ENDBRANCH 112 113
ENDBRANCH 107 112
BRANCH 110 115
HETATM  115  N   UNL     1      20.582  66.885  14.542  1.00  0.00     0.087 N 
HETATM  116  H   UNL     1      19.755  67.480  14.453  1.00  0.00     0.313 HD
HETATM  117  H   UNL     1      20.275  66.012  14.100  1.00  0.00     0.313 HD
ENDBRANCH 110 115
BRANCH 111 118
HETATM  118  O   UNL     1      18.791  67.990  16.250  1.00  0.00    -0.391 OA
HETATM  119  H   UNL     1      18.137  67.316  16.514  1.00  0.00     0.210 HD
ENDBRANCH 111 118
ENDBRANCH 105 106
ENDBRANCH  99 105
BRANCH 100 120
HETATM  120  N   UNL     1      17.957  68.983  21.127  1.00  0.00    -0.389 N 
HETATM  121  H   UNL     1      17.910  68.054  21.558  1.00  0.00     0.159 HD
BRANCH 120 122
HETATM  122  C   UNL     1      16.793  69.864  21.292  1.00  0.00     0.073 C 
BRANCH 122 123
HETATM  123  C   UNL     1      15.749  69.660  22.494  1.00  0.00     0.049 C 
HETATM  124  C   UNL     1      15.713  68.145  22.753  1.00  0.00     0.029 C 
BRANCH 123 125
HETATM  125  C   UNL     1      14.223  70.261  22.407  1.00  0.00     0.039 C 
BRANCH 125 126
HETATM  126  C   UNL     1      13.043  69.624  21.422  1.00  0.00     0.019 C 
HETATM  127  C   UNL     1      12.234  68.774  22.441  1.00  0.00     0.023 C 
BRANCH 126 128
HETATM  128  C   UNL     1      12.081  70.611  20.691  1.00  0.00     0.137 C 
HETATM  129  O   UNL     1      12.535  71.287  19.759  1.00  0.00    -0.297 OA
BRANCH 128 130
HETATM  130  C   UNL     1      10.608  70.786  21.109  1.00  0.00     0.109 C 
BRANCH 130 131
HETATM  131  C   UNL     1      10.369  72.044  21.976  1.00  0.00     0.279 C 
BRANCH 131 132
HETATM  132  N   UNL     1      11.510  72.698  22.646  1.00  0.00     0.080 N 
HETATM  133  C   UNL     1      11.537  72.290  24.057  1.00  0.00     0.309 C 
HETATM  134  C   UNL     1      11.456  74.149  22.590  1.00  0.00     0.309 C 
ENDBRANCH 131 132
ENDBRANCH 130 131
ENDBRANCH 128 130
ENDBRANCH 126 128
BRANCH 126 135
HETATM  135  C   UNL     1      13.625  68.658  20.228  1.00  0.00     0.033 C 
BRANCH 135 136
HETATM  136  C   UNL     1      12.746  67.707  19.169  1.00  0.00     0.019 C 
HETATM  137  C   UNL     1      11.320  67.541  19.721  1.00  0.00     0.023 C 
BRANCH 136 138
HETATM  138  C   UNL     1      12.597  68.184  17.696  1.00  0.00     0.137 C 
HETATM  139  O   UNL     1      11.794  67.614  16.947  1.00  0.00    -0.297 OA
BRANCH 138 140
HETATM  140  C   UNL     1      13.394  69.338  17.141  1.00  0.00     0.109 C 
BRANCH 140 141
HETATM  141  C   UNL     1      12.763  70.025  15.918  1.00  0.00     0.279 C 
BRANCH 141 142
HETATM  142  N   UNL     1      12.090  71.291  16.280  1.00  0.00     0.080 N 
HETATM  143  C   UNL     1      10.998  71.572  15.342  1.00  0.00     0.309 C 
HETATM  144  C   UNL     1      13.027  72.418  16.282  1.00  0.00     0.309 C 
ENDBRANCH 141 142
ENDBRANCH 140 141
ENDBRANCH 138 140
ENDBRANCH 136 138
BRANCH 136 145
HETATM  145  C   UNL     1      13.456  66.265  19.129  1.00  0.00     0.033 C 
BRANCH 145 146
HETATM  146  C   UNL     1      15.050  65.860  19.114  1.00  0.00     0.019 C 
HETATM  147  C   UNL     1      15.779  67.164  18.686  1.00  0.00     0.023 C 
BRANCH 146 148
HETATM  148  C   UNL     1      15.705  65.318  20.436  1.00  0.00     0.033 C 
BRANCH 148 149
HETATM  149  C   UNL     1      14.970  64.573  21.622  1.00  0.00     0.014 C 
HETATM  150  C   UNL     1      14.438  63.234  21.036  1.00  0.00     0.023 C 
HETATM  151  C   UNL     1      13.706  65.287  22.145  1.00  0.00     0.023 C 
BRANCH 149 152
HETATM  152  C   UNL     1      15.902  64.300  22.832  1.00  0.00     0.136 C 
HETATM  153  O   UNL     1      15.429  64.230  23.970  1.00  0.00    -0.297 OA
BRANCH 152 154
HETATM  154  C   UNL     1      17.415  64.215  22.643  1.00  0.00     0.109 C 
BRANCH 154 155
HETATM  155  C   UNL     1      18.154  64.677  23.910  1.00  0.00     0.279 C 
BRANCH 155 156
HETATM  156  N   UNL     1      19.325  63.831  24.231  1.00  0.00     0.080 N 
HETATM  157  C   UNL     1      19.892  64.152  25.542  1.00  0.00     0.309 C 
HETATM  158  C   UNL     1      18.948  62.413  24.203  1.00  0.00     0.309 C 
ENDBRANCH 155 156
ENDBRANCH 154 155
ENDBRANCH 152 154
ENDBRANCH 149 152
ENDBRANCH 148 149
ENDBRANCH 146 148
BRANCH 146 159
HETATM  159  C   UNL     1      15.256  64.853  17.937  1.00  0.00     0.137 C 
HETATM  160  O   UNL     1      16.033  63.897  18.032  1.00  0.00    -0.297 OA
BRANCH 159 161
HETATM  161  C   UNL     1      14.638  65.173  16.594  1.00  0.00     0.109 C 
BRANCH 161 162
HETATM  162  C   UNL     1      15.556  64.855  15.411  1.00  0.00     0.279 C 
BRANCH 162 163
HETATM  163  N   UNL     1      16.322  66.069  15.056  1.00  0.00     0.080 N 
HETATM  164  C   UNL     1      15.444  67.217  14.845  1.00  0.00     0.309 C 
HETATM  165  C   UNL     1      17.139  65.843  13.862  1.00  0.00     0.309 C 
ENDBRANCH 162 163
ENDBRANCH 161 162
ENDBRANCH 159 161
ENDBRANCH 146 159
ENDBRANCH 145 146
ENDBRANCH 136 145
ENDBRANCH 135 136
ENDBRANCH 126 135
ENDBRANCH 125 126
ENDBRANCH 123 125
BRANCH 123 166
HETATM  166  C   UNL     1      16.447  70.531  23.578  1.00  0.00     0.141 C 
HETATM  167  O   UNL     1      17.599  70.288  23.960  1.00  0.00    -0.297 OA
BRANCH 166 168
HETATM  168  C   UNL     1      15.680  71.625  24.281  1.00  0.00     0.110 C 
BRANCH 168 169
HETATM  169  C   UNL     1      16.648  72.514  25.028  1.00  0.00     0.279 C 
BRANCH 169 170
HETATM  170  N   UNL     1      16.498  72.522  26.490  1.00  0.00     0.080 N 
HETATM  171  C   UNL     1      17.658  71.913  27.142  1.00  0.00     0.309 C 
HETATM  172  C   UNL     1      15.297  71.768  26.861  1.00  0.00     0.309 C 
ENDBRANCH 169 170
ENDBRANCH 168 169
ENDBRANCH 166 168
ENDBRANCH 123 166
ENDBRANCH 122 123
ENDBRANCH 120 122
ENDBRANCH 100 120
BRANCH 101 173
HETATM  173  O   UNL     1      19.868  67.483  22.643  1.00  0.00    -0.391 OA
HETATM  174  H   UNL     1      20.319  66.969  21.944  1.00  0.00     0.210 HD
ENDBRANCH 101 173
ENDBRANCH  95  96
ENDBRANCH   5  95
TORSDOF 88
ENDMDL
MODEL 9
REMARK VINA RESULT:      -4.2      4.583      9.248
REMARK WARNING: 32 MAX_TORS EXCEEDED!!!
REMARK  88 active torsions:
REMARK  status: ('A' for Active; 'I' for Inactive)
REMARK    1  A    between atoms: C_1  and  O_28 
REMARK    2  A    between atoms: C_2  and  C_6 
REMARK    3  A    between atoms: C_3  and  O_8 
REMARK    4  A    between atoms: C_4  and  N_10 
REMARK    5  A    between atoms: C_5  and  O_11 
REMARK    6  A    between atoms: C_6  and  O_65 
REMARK    7  A    between atoms: O_11  and  C_18 
REMARK    8  A    between atoms: O_13  and  C_16 
REMARK    9  A    between atoms: C_15  and  C_21 
REMARK   10  A    between atoms: O_17  and  C_20 
REMARK   11  A    between atoms: O_17  and  C_39 
REMARK   12  A    between atoms: N_19  and  C_22 
REMARK   13  A    between atoms: N_19  and  C_161 
REMARK   14  A    between atoms: C_21  and  O_67 
REMARK   15  A    between atoms: O_24  and  C_27 
REMARK   16  A    between atoms: C_26  and  C_32 
REMARK   17  A    between atoms: O_28  and  C_31 
REMARK   18  A    between atoms: C_29  and  O_49 
REMARK   19  A    between atoms: N_30  and  C_33 
REMARK   20  A    between atoms: C_32  and  O_63 
REMARK   21  A    between atoms: O_35  and  C_38 
REMARK   22  A    between atoms: C_37  and  C_42 
REMARK   23  A    between atoms: N_40  and  C_43 
REMARK   24  A    between atoms: C_42  and  O_69 
REMARK   25  A    between atoms: O_45  and  C_48 
REMARK   26  A    between atoms: C_47  and  C_53 
REMARK   27  A    between atoms: O_49  and  C_52 
REMARK   28  A    between atoms: N_51  and  C_54 
REMARK   29  A    between atoms: N_51  and  C_71 
REMARK   30  A    between atoms: C_53  and  O_61 
REMARK   31  A    between atoms: C_71  and  C_73 
REMARK   32  A    between atoms: C_73  and  C_74 
REMARK   33  A    between atoms: C_73  and  C_83 
REMARK   34  A    between atoms: C_74  and  C_75 
REMARK   35  A    between atoms: C_75  and  C_76 
REMARK   36  A    between atoms: C_75  and  C_87 
REMARK   37  A    between atoms: C_76  and  C_77 
REMARK   38  A    between atoms: C_77  and  C_78 
REMARK   39  A    between atoms: C_77  and  C_91 
REMARK   40  A    between atoms: C_78  and  C_79 
REMARK   41  A    between atoms: C_79  and  C_80 
REMARK   42  A    between atoms: C_79  and  C_95 
REMARK   43  A    between atoms: C_80  and  C_81 
REMARK   44  A    between atoms: C_81  and  C_99 
REMARK   45  A    between atoms: C_83  and  C_84 
REMARK   46  A    between atoms: C_84  and  C_85 
REMARK   47  A    between atoms: C_85  and  N_103 
REMARK   48  A    between atoms: C_87  and  C_88 
REMARK   49  A    between atoms: C_88  and  C_89 
REMARK   50  A    between atoms: C_89  and  N_104 
REMARK   51  A    between atoms: C_91  and  C_92 
REMARK   52  A    between atoms: C_92  and  C_93 
REMARK   53  A    between atoms: C_93  and  N_105 
REMARK   54  A    between atoms: C_95  and  C_96 
REMARK   55  A    between atoms: C_96  and  C_97 
REMARK   56  A    between atoms: C_97  and  N_106 
REMARK   57  A    between atoms: C_99  and  C_100 
REMARK   58  A    between atoms: C_100  and  C_101 
REMARK   59  A    between atoms: C_101  and  N_107 
REMARK   60  A    between atoms: N_126  and  C_129 
REMARK   61  A    between atoms: C_129  and  C_135 
REMARK   62  A    between atoms: C_130  and  C_135 
REMARK   63  A    between atoms: C_130  and  C_142 
REMARK   64  A    between atoms: N_132  and  C_139 
REMARK   65  A    between atoms: C_136  and  C_137 
REMARK   66  A    between atoms: C_136  and  C_146 
REMARK   67  A    between atoms: C_137  and  C_139 
REMARK   68  A    between atoms: N_141  and  C_152 
REMARK   69  A    between atoms: C_142  and  C_153 
REMARK   70  A    between atoms: C_142  and  C_159 
REMARK   71  A    between atoms: C_144  and  C_152 
REMARK   72  A    between atoms: C_144  and  C_156 
REMARK   73  A    between atoms: C_146  and  C_162 
REMARK   74  A    between atoms: C_146  and  C_153 
REMARK   75  A    between atoms: C_148  and  C_156 
REMARK   76  A    between atoms: C_148  and  C_149 
REMARK   77  A    between atoms: C_149  and  C_163 
REMARK   78  A    between atoms: C_150  and  C_161 
REMARK   79  A    between atoms: C_150  and  C_159 
REMARK   80  A    between atoms: C_150  and  C_160 
REMARK   81  A    between atoms: C_151  and  N_157 
REMARK   82  A    between atoms: C_151  and  C_154 
REMARK   83  A    between atoms: C_154  and  C_160 
REMARK   84  A    between atoms: C_162  and  C_163 
REMARK   85  A    between atoms: C_163  and  C_169 
REMARK   86  A    between atoms: C_166  and  C_171 
REMARK   87  A    between atoms: C_166  and  C_169 
REMARK   88  A    between atoms: N_167  and  C_171 
ROOT
HETATM    1  C   UNL     1      22.677  70.246  25.176  1.00  0.00     0.186 C 
HETATM    2  C   UNL     1      22.926  69.226  24.043  1.00  0.00     0.179 C 
HETATM    3  C   UNL     1      21.230  70.144  25.700  1.00  0.00     0.187 C 
HETATM    4  C   UNL     1      20.209  70.045  24.541  1.00  0.00     0.303 C 
HETATM    5  C   UNL     1      20.571  68.861  23.577  1.00  0.00     0.296 C 
HETATM    6  O   UNL     1      21.839  68.290  23.914  1.00  0.00    -0.349 OA
ENDROOT
BRANCH   1   7
HETATM    7  O   UNL     1      23.589  69.961  26.246  1.00  0.00    -0.348 OA
BRANCH   7   8
HETATM    8  C   UNL     1      24.967  70.245  25.964  1.00  0.00     0.296 C 
HETATM    9  O   UNL     1      25.726  69.190  26.548  1.00  0.00    -0.349 OA
HETATM   10  C   UNL     1      27.147  69.381  26.638  1.00  0.00     0.179 C 
HETATM   11  C   UNL     1      27.589  70.799  27.055  1.00  0.00     0.186 C 
HETATM   12  C   UNL     1      26.418  71.634  27.560  1.00  0.00     0.187 C 
HETATM   13  C   UNL     1      25.329  71.679  26.484  1.00  0.00     0.303 C 
BRANCH  10  14
HETATM   14  C   UNL     1      27.780  68.948  25.305  1.00  0.00     0.198 C 
BRANCH  14  15
HETATM   15  O   UNL     1      28.806  69.863  24.918  1.00  0.00    -0.398 OA
HETATM   16  H   UNL     1      29.026  70.389  25.712  1.00  0.00     0.209 HD
ENDBRANCH  14  15
ENDBRANCH  10  14
BRANCH  11  17
HETATM   17  O   UNL     1      28.529  70.711  28.137  1.00  0.00    -0.348 OA
BRANCH  17  18
HETATM   18  C   UNL     1      28.532  69.442  28.780  1.00  0.00     0.296 C 
HETATM   19  O   UNL     1      28.083  69.607  30.131  1.00  0.00    -0.351 OA
HETATM   20  C   UNL     1      27.639  68.367  30.717  1.00  0.00     0.150 C 
HETATM   21  C   UNL     1      28.489  67.186  30.210  1.00  0.00     0.068 C 
HETATM   22  C   UNL     1      29.915  67.671  29.904  1.00  0.00     0.158 C 
HETATM   23  C   UNL     1      29.951  68.741  28.761  1.00  0.00     0.303 C 
BRANCH  20  24
HETATM   24  C   UNL     1      26.121  68.199  30.552  1.00  0.00     0.196 C 
BRANCH  24  25
HETATM   25  O   UNL     1      25.415  69.364  30.969  1.00  0.00    -0.398 OA
HETATM   26  H   UNL     1      25.435  69.981  30.214  1.00  0.00     0.209 HD
ENDBRANCH  24  25
ENDBRANCH  20  24
BRANCH  22  27
HETATM   27  O   UNL     1      30.437  68.232  31.120  1.00  0.00    -0.393 OA
HETATM   28  H   UNL     1      30.283  67.579  31.832  1.00  0.00     0.210 HD
ENDBRANCH  22  27
BRANCH  23  29
HETATM   29  N   UNL     1      31.092  69.695  28.938  1.00  0.00     0.096 N 
HETATM   30  H   UNL     1      31.424  69.548  29.890  1.00  0.00     0.316 HD
BRANCH  29  31
HETATM   31  C   UNL     1      32.223  69.621  27.975  1.00  0.00     0.287 C 
BRANCH  31  32
HETATM   32  C   UNL     1      33.692  69.680  28.642  1.00  0.00     0.044 C 
HETATM   33  C   UNL     1      34.648  70.407  27.684  1.00  0.00     0.025 C 
BRANCH  32  34
HETATM   34  C   UNL     1      34.261  68.210  29.032  1.00  0.00     0.035 C 
BRANCH  34  35
HETATM   35  C   UNL     1      35.814  67.865  29.386  1.00  0.00     0.019 C 
HETATM   36  C   UNL     1      35.924  66.353  29.050  1.00  0.00     0.023 C 
BRANCH  35  37
HETATM   37  C   UNL     1      36.063  68.115  30.969  1.00  0.00     0.033 C 
BRANCH  37  38
HETATM   38  C   UNL     1      35.683  67.142  32.234  1.00  0.00     0.019 C 
HETATM   39  C   UNL     1      35.366  68.003  33.468  1.00  0.00     0.023 C 
BRANCH  38  40
HETATM   40  C   UNL     1      37.003  66.276  32.516  1.00  0.00     0.033 C 
BRANCH  40  41
HETATM   41  C   UNL     1      38.575  66.691  32.462  1.00  0.00     0.019 C 
HETATM   42  C   UNL     1      39.302  65.568  33.249  1.00  0.00     0.023 C 
BRANCH  41  43
HETATM   43  C   UNL     1      39.240  66.853  31.054  1.00  0.00     0.033 C 
BRANCH  43  44
HETATM   44  C   UNL     1      39.896  65.712  30.186  1.00  0.00     0.014 C 
HETATM   45  C   UNL     1      39.693  66.121  28.701  1.00  0.00     0.023 C 
HETATM   46  C   UNL     1      39.202  64.341  30.304  1.00  0.00     0.023 C 
BRANCH  44  47
HETATM   47  C   UNL     1      41.401  65.522  30.500  1.00  0.00     0.136 C 
HETATM   48  O   UNL     1      42.119  66.508  30.694  1.00  0.00    -0.297 OA
BRANCH  47  49
HETATM   49  C   UNL     1      42.028  64.132  30.473  1.00  0.00     0.109 C 
BRANCH  49  50
HETATM   50  C   UNL     1      42.910  63.909  31.712  1.00  0.00     0.279 C 
BRANCH  50  51
HETATM   51  N   UNL     1      42.743  62.563  32.299  1.00  0.00     0.080 N 
HETATM   52  C   UNL     1      43.555  62.384  33.503  1.00  0.00     0.309 C 
HETATM   53  C   UNL     1      41.332  62.327  32.630  1.00  0.00     0.309 C 
ENDBRANCH  50  51
ENDBRANCH  49  50
ENDBRANCH  47  49
ENDBRANCH  44  47
ENDBRANCH  43  44
ENDBRANCH  41  43
BRANCH  41  54
HETATM   54  C   UNL     1      38.734  67.986  33.326  1.00  0.00     0.137 C 
HETATM   55  O   UNL     1      38.476  67.997  34.525  1.00  0.00    -0.297 OA
BRANCH  54  56
HETATM   56  C   UNL     1      39.022  69.292  32.614  1.00  0.00     0.109 C 
BRANCH  56  57
HETATM   57  C   UNL     1      40.390  69.876  32.972  1.00  0.00     0.279 C 
BRANCH  57  58
HETATM   58  N   UNL     1      40.276  71.347  33.069  1.00  0.00     0.080 N 
HETATM   59  C   UNL     1      39.516  71.889  31.941  1.00  0.00     0.309 C 
HETATM   60  C   UNL     1      39.656  71.753  34.326  1.00  0.00     0.309 C 
ENDBRANCH  57  58
ENDBRANCH  56  57
ENDBRANCH  54  56
ENDBRANCH  41  54
ENDBRANCH  40  41
ENDBRANCH  38  40
BRANCH  38  61
HETATM   61  C   UNL     1      34.487  66.169  32.058  1.00  0.00     0.137 C 
HETATM   62  O   UNL     1      34.697  64.991  31.745  1.00  0.00    -0.297 OA
BRANCH  61  63
HETATM   63  C   UNL     1      33.061  66.604  32.288  1.00  0.00     0.109 C 
BRANCH  63  64
HETATM   64  C   UNL     1      32.277  65.693  33.245  1.00  0.00     0.279 C 
BRANCH  64  65
HETATM   65  N   UNL     1      31.923  66.392  34.498  1.00  0.00     0.080 N 
HETATM   66  C   UNL     1      32.915  66.145  35.548  1.00  0.00     0.309 C 
HETATM   67  C   UNL     1      31.822  67.836  34.258  1.00  0.00     0.309 C 
ENDBRANCH  64  65
ENDBRANCH  63  64
ENDBRANCH  61  63
ENDBRANCH  38  61
ENDBRANCH  37  38
ENDBRANCH  35  37
BRANCH  35  68
HETATM   68  C   UNL     1      36.945  68.628  28.632  1.00  0.00     0.137 C 
HETATM   69  O   UNL     1      37.203  68.298  27.469  1.00  0.00    -0.297 OA
BRANCH  68  70
HETATM   70  C   UNL     1      37.767  69.745  29.292  1.00  0.00     0.109 C 
BRANCH  70  71
HETATM   71  C   UNL     1      38.466  70.663  28.259  1.00  0.00     0.279 C 
BRANCH  71  72
HETATM   72  N   UNL     1      39.923  70.541  28.042  1.00  0.00     0.080 N 
HETATM   73  C   UNL     1      40.612  71.822  28.046  1.00  0.00     0.309 C 
HETATM   74  C   UNL     1      40.501  69.705  29.105  1.00  0.00     0.309 C 
ENDBRANCH  71  72
ENDBRANCH  70  71
ENDBRANCH  68  70
ENDBRANCH  35  68
ENDBRANCH  34  35
ENDBRANCH  32  34
BRANCH  32  75
HETATM   75  C   UNL     1      33.442  70.414  29.983  1.00  0.00     0.138 C 
HETATM   76  O   UNL     1      33.019  69.795  30.969  1.00  0.00    -0.297 OA
BRANCH  75  77
HETATM   77  C   UNL     1      33.570  71.918  30.084  1.00  0.00     0.109 C 
BRANCH  77  78
HETATM   78  C   UNL     1      34.871  72.261  30.787  1.00  0.00     0.279 C 
BRANCH  78  79
HETATM   79  N   UNL     1      35.440  73.567  30.425  1.00  0.00     0.080 N 
HETATM   80  C   UNL     1      36.112  73.514  29.126  1.00  0.00     0.309 C 
HETATM   81  C   UNL     1      36.392  73.997  31.455  1.00  0.00     0.309 C 
ENDBRANCH  78  79
ENDBRANCH  77  78
ENDBRANCH  75  77
ENDBRANCH  32  75
ENDBRANCH  31  32
ENDBRANCH  29  31
ENDBRANCH  23  29
ENDBRANCH  17  18
ENDBRANCH  11  17
BRANCH  12  82
HETATM   82  O   UNL     1      25.918  71.110  28.797  1.00  0.00    -0.391 OA
HETATM   83  H   UNL     1      26.584  71.368  29.468  1.00  0.00     0.210 HD
ENDBRANCH  12  82
BRANCH  13  84
HETATM   84  N   UNL     1      24.193  72.500  26.954  1.00  0.00     0.090 N 
HETATM   85  H   UNL     1      23.745  71.954  27.698  1.00  0.00     0.313 HD
HETATM   86  H   UNL     1      23.482  72.524  26.211  1.00  0.00     0.313 HD
ENDBRANCH  13  84
ENDBRANCH   7   8
ENDBRANCH   1   7
BRANCH   2  87
HETATM   87  C   UNL     1      23.250  69.941  22.719  1.00  0.00     0.198 C 
BRANCH  87  88
HETATM   88  O   UNL     1      24.130  69.174  21.909  1.00  0.00    -0.398 OA
HETATM   89  H   UNL     1      23.658  68.931  21.092  1.00  0.00     0.209 HD
ENDBRANCH  87  88
ENDBRANCH   2  87
BRANCH   3  90
HETATM   90  O   UNL     1      21.084  69.019  26.582  1.00  0.00    -0.391 OA
HETATM   91  H   UNL     1      21.374  68.227  26.083  1.00  0.00     0.210 HD
ENDBRANCH   3  90
BRANCH   4  92
HETATM   92  N   UNL     1      18.819  69.977  25.050  1.00  0.00     0.090 N 
HETATM   93  H   UNL     1      18.261  70.709  24.603  1.00  0.00     0.313 HD
HETATM   94  H   UNL     1      18.858  70.288  26.030  1.00  0.00     0.313 HD
ENDBRANCH   4  92
BRANCH   5  95
HETATM   95  O   UNL     1      19.605  67.793  23.675  1.00  0.00    -0.348 OA
BRANCH  95  96
HETATM   96  C   UNL     1      18.794  67.539  22.491  1.00  0.00     0.186 C 
HETATM   97  C   UNL     1      19.328  68.342  21.291  1.00  0.00     0.180 C 
HETATM   98  O   UNL     1      19.648  67.524  20.167  1.00  0.00    -0.349 OA
HETATM   99  C   UNL     1      18.692  66.541  19.775  1.00  0.00     0.286 C 
HETATM  100  C   UNL     1      18.259  65.501  20.901  1.00  0.00     0.167 C 
HETATM  101  C   UNL     1      18.915  66.007  22.220  1.00  0.00     0.177 C 
BRANCH  97 102
HETATM  102  C   UNL     1      18.387  69.468  20.835  1.00  0.00     0.198 C 
BRANCH 102 103
HETATM  103  O   UNL     1      17.757  70.076  21.961  1.00  0.00    -0.398 OA
HETATM  104  H   UNL     1      17.914  71.040  21.905  1.00  0.00     0.209 HD
ENDBRANCH 102 103
ENDBRANCH  97 102
BRANCH  99 105
HETATM  105  O   UNL     1      19.343  65.859  18.703  1.00  0.00    -0.348 OA
BRANCH 105 106
HETATM  106  C   UNL     1      19.300  66.512  17.444  1.00  0.00     0.186 C 
HETATM  107  C   UNL     1      20.725  66.651  16.871  1.00  0.00     0.176 C 
HETATM  108  O   UNL     1      20.750  66.574  15.426  1.00  0.00    -0.379 OA
HETATM  109  C   UNL     1      19.607  67.168  14.802  1.00  0.00     0.206 C 
HETATM  110  C   UNL     1      18.309  66.401  15.139  1.00  0.00     0.272 C 
HETATM  111  C   UNL     1      18.449  65.658  16.486  1.00  0.00     0.184 C 
BRANCH 107 112
HETATM  112  C   UNL     1      21.427  67.942  17.311  1.00  0.00     0.198 C 
BRANCH 112 113
HETATM  113  O   UNL     1      20.473  68.853  17.855  1.00  0.00    -0.398 OA
HETATM  114  H   UNL     1      19.680  68.324  18.069  1.00  0.00     0.209 HD
ENDBRANCH 112 113
ENDBRANCH 107 112
BRANCH 110 115
HETATM  115  N   UNL     1      17.926  65.471  14.060  1.00  0.00     0.087 N 
HETATM  116  H   UNL     1      18.293  64.545  14.295  1.00  0.00     0.313 HD
HETATM  117  H   UNL     1      18.475  65.722  13.232  1.00  0.00     0.313 HD
ENDBRANCH 110 115
BRANCH 111 118
HETATM  118  O   UNL     1      19.019  64.351  16.274  1.00  0.00    -0.391 OA
HETATM  119  H   UNL     1      18.342  63.800  15.840  1.00  0.00     0.210 HD
ENDBRANCH 111 118
ENDBRANCH 105 106
ENDBRANCH  99 105
BRANCH 100 120
HETATM  120  N   UNL     1      18.636  64.104  20.489  1.00  0.00    -0.389 N 
HETATM  121  H   UNL     1      19.102  63.690  21.303  1.00  0.00     0.159 HD
BRANCH 120 122
HETATM  122  C   UNL     1      17.873  63.201  19.617  1.00  0.00     0.073 C 
BRANCH 122 123
HETATM  123  C   UNL     1      16.548  62.455  20.133  1.00  0.00     0.049 C 
HETATM  124  C   UNL     1      15.843  63.464  21.055  1.00  0.00     0.029 C 
BRANCH 123 125
HETATM  125  C   UNL     1      16.626  60.982  20.852  1.00  0.00     0.039 C 
BRANCH 125 126
HETATM  126  C   UNL     1      17.863  60.521  21.865  1.00  0.00     0.019 C 
HETATM  127  C   UNL     1      19.075  60.570  20.894  1.00  0.00     0.023 C 
BRANCH 126 128
HETATM  128  C   UNL     1      18.162  61.408  23.114  1.00  0.00     0.137 C 
HETATM  129  O   UNL     1      18.536  62.572  22.927  1.00  0.00    -0.297 OA
BRANCH 128 130
HETATM  130  C   UNL     1      18.033  60.872  24.553  1.00  0.00     0.109 C 
BRANCH 130 131
HETATM  131  C   UNL     1      17.556  61.944  25.559  1.00  0.00     0.279 C 
BRANCH 131 132
HETATM  132  N   UNL     1      16.386  61.672  26.418  1.00  0.00     0.080 N 
HETATM  133  C   UNL     1      16.472  62.506  27.625  1.00  0.00     0.309 C 
HETATM  134  C   UNL     1      16.284  60.282  26.828  1.00  0.00     0.309 C 
ENDBRANCH 131 132
ENDBRANCH 130 131
ENDBRANCH 128 130
ENDBRANCH 126 128
BRANCH 126 135
HETATM  135  C   UNL     1      17.695  59.004  22.470  1.00  0.00     0.033 C 
BRANCH 135 136
HETATM  136  C   UNL     1      16.271  58.201  22.825  1.00  0.00     0.019 C 
HETATM  137  C   UNL     1      16.398  57.560  24.217  1.00  0.00     0.023 C 
BRANCH 136 138
HETATM  138  C   UNL     1      14.945  59.014  22.833  1.00  0.00     0.137 C 
HETATM  139  O   UNL     1      14.843  60.011  23.558  1.00  0.00    -0.297 OA
BRANCH 138 140
HETATM  140  C   UNL     1      13.767  58.637  21.968  1.00  0.00     0.109 C 
BRANCH 140 141
HETATM  141  C   UNL     1      13.463  59.626  20.830  1.00  0.00     0.279 C 
BRANCH 141 142
HETATM  142  N   UNL     1      12.236  60.409  21.090  1.00  0.00     0.080 N 
HETATM  143  C   UNL     1      11.385  60.431  19.895  1.00  0.00     0.309 C 
HETATM  144  C   UNL     1      12.548  61.784  21.486  1.00  0.00     0.309 C 
ENDBRANCH 141 142
ENDBRANCH 140 141
ENDBRANCH 138 140
ENDBRANCH 136 138
BRANCH 136 145
HETATM  145  C   UNL     1      16.102  57.034  21.731  1.00  0.00     0.033 C 
BRANCH 145 146
HETATM  146  C   UNL     1      17.233  56.126  20.955  1.00  0.00     0.019 C 
HETATM  147  C   UNL     1      16.435  54.934  20.360  1.00  0.00     0.023 C 
BRANCH 146 148
HETATM  148  C   UNL     1      18.084  56.793  19.814  1.00  0.00     0.033 C 
BRANCH 148 149
HETATM  149  C   UNL     1      17.535  57.469  18.493  1.00  0.00     0.014 C 
HETATM  150  C   UNL     1      18.519  58.623  18.149  1.00  0.00     0.023 C 
HETATM  151  C   UNL     1      16.169  58.170  18.650  1.00  0.00     0.023 C 
BRANCH 149 152
HETATM  152  C   UNL     1      17.431  56.476  17.306  1.00  0.00     0.136 C 
HETATM  153  O   UNL     1      18.446  56.155  16.681  1.00  0.00    -0.297 OA
BRANCH 152 154
HETATM  154  C   UNL     1      16.070  55.964  16.840  1.00  0.00     0.109 C 
BRANCH 154 155
HETATM  155  C   UNL     1      16.227  54.951  15.693  1.00  0.00     0.279 C 
BRANCH 155 156
HETATM  156  N   UNL     1      15.382  53.749  15.870  1.00  0.00     0.080 N 
HETATM  157  C   UNL     1      15.589  52.769  14.803  1.00  0.00     0.309 C 
HETATM  158  C   UNL     1      15.664  53.118  17.165  1.00  0.00     0.309 C 
ENDBRANCH 155 156
ENDBRANCH 154 155
ENDBRANCH 152 154
ENDBRANCH 149 152
ENDBRANCH 148 149
ENDBRANCH 146 148
BRANCH 146 159
HETATM  159  C   UNL     1      18.159  55.512  22.054  1.00  0.00     0.137 C 
HETATM  160  O   UNL     1      19.203  56.070  22.406  1.00  0.00    -0.297 OA
BRANCH 159 161
HETATM  161  C   UNL     1      17.864  54.112  22.548  1.00  0.00     0.109 C 
BRANCH 161 162
HETATM  162  C   UNL     1      18.644  53.738  23.811  1.00  0.00     0.279 C 
BRANCH 162 163
HETATM  163  N   UNL     1      19.426  52.511  23.549  1.00  0.00     0.080 N 
HETATM  164  C   UNL     1      19.546  51.682  24.745  1.00  0.00     0.309 C 
HETATM  165  C   UNL     1      20.759  52.838  23.037  1.00  0.00     0.309 C 
ENDBRANCH 162 163
ENDBRANCH 161 162
ENDBRANCH 159 161
ENDBRANCH 146 159
ENDBRANCH 145 146
ENDBRANCH 136 145
ENDBRANCH 135 136
ENDBRANCH 126 135
ENDBRANCH 125 126
ENDBRANCH 123 125
BRANCH 123 166
HETATM  166  C   UNL     1      15.869  62.181  18.760  1.00  0.00     0.141 C 
HETATM  167  O   UNL     1      14.637  62.143  18.644  1.00  0.00    -0.297 OA
BRANCH 166 168
HETATM  168  C   UNL     1      16.708  61.831  17.556  1.00  0.00     0.110 C 
BRANCH 168 169
HETATM  169  C   UNL     1      16.084  62.435  16.318  1.00  0.00     0.279 C 
BRANCH 169 170
HETATM  170  N   UNL     1      16.050  61.560  15.137  1.00  0.00     0.080 N 
HETATM  171  C   UNL     1      16.340  60.173  15.500  1.00  0.00     0.309 C 
HETATM  172  C   UNL     1      17.049  62.014  14.165  1.00  0.00     0.309 C 
ENDBRANCH 169 170
ENDBRANCH 168 169
ENDBRANCH 166 168
ENDBRANCH 123 166
ENDBRANCH 122 123
ENDBRANCH 120 122
ENDBRANCH 100 120
BRANCH 101 173
HETATM  173  O   UNL     1      20.315  65.652  22.216  1.00  0.00    -0.391 OA
HETATM  174  H   UNL     1      20.583  65.582  23.154  1.00  0.00     0.210 HD
ENDBRANCH 101 173
ENDBRANCH  95  96
ENDBRANCH   5  95
TORSDOF 88
ENDMDL
