MODEL 1
REMARK VINA RESULT:      -7.2      0.000      0.000
REMARK WARNING: 32 MAX_TORS EXCEEDED!!!
REMARK  58 active torsions:
REMARK  status: ('A' for Active; 'I' for Inactive)
REMARK    1  A    between atoms: C_1  and  O_30 
REMARK    2  A    between atoms: C_2  and  C_6 
REMARK    3  A    between atoms: C_3  and  O_9 
REMARK    4  A    between atoms: C_4  and  N_11 
REMARK    5  A    between atoms: C_5  and  O_12 
REMARK    6  A    between atoms: C_6  and  O_7 
REMARK    7  A    between atoms: N_11  and  C_118 
REMARK    8  A    between atoms: O_12  and  C_20 
REMARK    9  A    between atoms: O_14  and  C_18 
REMARK   10  A    between atoms: C_16  and  C_23 
REMARK   11  A    between atoms: O_17  and  C_23 
REMARK   12  A    between atoms: O_19  and  C_22 
REMARK   13  A    between atoms: O_19  and  C_42 
REMARK   14  A    between atoms: N_21  and  C_24 
REMARK   15  A    between atoms: O_26  and  C_29 
REMARK   16  A    between atoms: C_28  and  C_34 
REMARK   17  A    between atoms: O_30  and  C_33 
REMARK   18  A    between atoms: C_31  and  O_53 
REMARK   19  A    between atoms: N_32  and  C_35 
REMARK   20  A    between atoms: C_34  and  O_65 
REMARK   21  A    between atoms: O_37  and  C_41 
REMARK   22  A    between atoms: C_39  and  C_45 
REMARK   23  A    between atoms: O_40  and  C_45 
REMARK   24  A    between atoms: N_43  and  C_46 
REMARK   25  A    between atoms: O_48  and  C_52 
REMARK   26  A    between atoms: C_50  and  C_57 
REMARK   27  A    between atoms: O_51  and  C_57 
REMARK   28  A    between atoms: O_53  and  C_56 
REMARK   29  A    between atoms: N_55  and  C_58 
REMARK   30  A    between atoms: N_55  and  C_71 
REMARK   31  A    between atoms: C_71  and  C_73 
REMARK   32  A    between atoms: C_73  and  C_74 
REMARK   33  A    between atoms: C_73  and  N_87 
REMARK   34  A    between atoms: C_74  and  C_75 
REMARK   35  A    between atoms: C_75  and  C_76 
REMARK   36  A    between atoms: C_75  and  N_101 
REMARK   37  A    between atoms: C_76  and  C_77 
REMARK   38  A    between atoms: C_77  and  C_78 
REMARK   39  A    between atoms: C_77  and  N_91 
REMARK   40  A    between atoms: C_78  and  C_79 
REMARK   41  A    between atoms: C_79  and  C_80 
REMARK   42  A    between atoms: C_79  and  N_106 
REMARK   43  A    between atoms: C_80  and  C_81 
REMARK   44  A    between atoms: C_81  and  N_96 
REMARK   45  A    between atoms: N_113  and  C_119 
REMARK   46  A    between atoms: C_118  and  C_119 
REMARK   47  A    between atoms: C_119  and  C_126 
REMARK   48  A    between atoms: N_122  and  C_128 
REMARK   49  A    between atoms: C_124  and  C_128 
REMARK   50  A    between atoms: C_124  and  C_130 
REMARK   51  A    between atoms: N_125  and  C_135 
REMARK   52  A    between atoms: C_126  and  C_130 
REMARK   53  A    between atoms: C_128  and  C_132 
REMARK   54  A    between atoms: N_129  and  C_130 
REMARK   55  A    between atoms: C_132  and  C_137 
REMARK   56  A    between atoms: C_135  and  C_136 
REMARK   57  A    between atoms: C_136  and  C_137 
REMARK   58  A    between atoms: C_137  and  N_140 
ROOT
HETATM    1  C   UNL     1      23.048  70.201  24.497  1.00  0.00     0.186 C 
HETATM    2  C   UNL     1      22.661  69.283  25.720  1.00  0.00     0.179 C 
HETATM    3  C   UNL     1      24.339  71.058  24.693  1.00  0.00     0.188 C 
HETATM    4  C   UNL     1      25.377  70.398  25.646  1.00  0.00     0.306 C 
HETATM    5  C   UNL     1      24.498  70.211  26.925  1.00  0.00     0.296 C 
HETATM    6  O   UNL     1      23.684  69.073  26.731  1.00  0.00    -0.349 OA
ENDROOT
BRANCH   1   7
HETATM    7  O   UNL     1      23.156  69.396  23.308  1.00  0.00    -0.348 OA
BRANCH   7   8
HETATM    8  C   UNL     1      22.212  69.731  22.272  1.00  0.00     0.296 C 
HETATM    9  O   UNL     1      21.001  69.029  22.564  1.00  0.00    -0.349 OA
HETATM   10  C   UNL     1      19.942  69.183  21.594  1.00  0.00     0.179 C 
HETATM   11  C   UNL     1      20.429  68.940  20.148  1.00  0.00     0.186 C 
HETATM   12  C   UNL     1      21.851  68.357  20.150  1.00  0.00     0.187 C 
HETATM   13  C   UNL     1      22.792  69.336  20.869  1.00  0.00     0.303 C 
BRANCH  10  14
HETATM   14  C   UNL     1      19.261  70.557  21.746  1.00  0.00     0.198 C 
BRANCH  14  15
HETATM   15  O   UNL     1      18.940  71.132  20.481  1.00  0.00    -0.398 OA
HETATM   16  H   UNL     1      19.458  70.659  19.803  1.00  0.00     0.209 HD
ENDBRANCH  14  15
ENDBRANCH  10  14
BRANCH  11  17
HETATM   17  O   UNL     1      19.596  68.020  19.439  1.00  0.00    -0.348 OA
BRANCH  17  18
HETATM   18  C   UNL     1      20.251  67.257  18.433  1.00  0.00     0.296 C 
HETATM   19  O   UNL     1      20.261  67.993  17.214  1.00  0.00    -0.351 OA
HETATM   20  C   UNL     1      20.073  67.242  16.005  1.00  0.00     0.150 C 
HETATM   21  C   UNL     1      20.786  65.894  16.062  1.00  0.00     0.068 C 
HETATM   22  C   UNL     1      20.369  65.058  17.279  1.00  0.00     0.158 C 
HETATM   23  C   UNL     1      19.593  65.849  18.364  1.00  0.00     0.303 C 
BRANCH  20  24
HETATM   24  C   UNL     1      20.575  68.085  14.819  1.00  0.00     0.196 C 
BRANCH  24  25
HETATM   25  O   UNL     1      21.344  67.268  13.938  1.00  0.00    -0.398 OA
HETATM   26  H   UNL     1      21.593  67.818  13.175  1.00  0.00     0.209 HD
ENDBRANCH  24  25
ENDBRANCH  20  24
BRANCH  22  27
HETATM   27  O   UNL     1      19.593  63.936  16.841  1.00  0.00    -0.393 OA
HETATM   28  H   UNL     1      20.048  63.153  17.218  1.00  0.00     0.210 HD
ENDBRANCH  22  27
BRANCH  23  29
HETATM   29  N   UNL     1      18.137  65.768  18.048  1.00  0.00     0.097 N 
HETATM   30  H   UNL     1      17.759  66.711  18.176  1.00  0.00     0.316 HD
BRANCH  29  31
HETATM   31  C   UNL     1      17.313  64.924  18.931  1.00  0.00     0.296 C 
BRANCH  31  32
HETATM   32  C   UNL     1      15.751  64.946  18.668  1.00  0.00     0.120 C 
BRANCH  32  33
HETATM   33  C   UNL     1      15.361  63.738  17.745  1.00  0.00     0.053 C 
BRANCH  33  34
HETATM   34  C   UNL     1      16.466  62.850  17.044  1.00  0.00     0.094 C 
BRANCH  34  35
HETATM   35  C   UNL     1      16.685  61.533  17.931  1.00  0.00     0.051 C 
BRANCH  35  36
HETATM   36  C   UNL     1      18.088  60.904  18.242  1.00  0.00     0.094 C 
BRANCH  36  37
HETATM   37  C   UNL     1      18.530  61.052  19.741  1.00  0.00     0.051 C 
BRANCH  37  38
HETATM   38  C   UNL     1      17.382  60.974  20.795  1.00  0.00     0.094 C 
BRANCH  38  39
HETATM   39  C   UNL     1      17.416  59.640  21.623  1.00  0.00     0.051 C 
BRANCH  39  40
HETATM   40  C   UNL     1      16.399  58.487  21.391  1.00  0.00     0.089 C 
HETATM   41  C   UNL     1      15.363  58.925  20.340  1.00  0.00     0.033 C 
BRANCH  40  42
HETATM   42  N   UNL     1      16.953  57.207  20.977  1.00  0.00    -0.334 N 
HETATM   43  C   UNL     1      16.357  56.339  20.100  1.00  0.00     0.210 A 
HETATM   44  N   UNL     1      17.098  55.274  19.898  1.00  0.00    -0.254 NA
HETATM   45  C   UNL     1      18.219  55.468  20.661  1.00  0.00     0.150 A 
HETATM   46  C   UNL     1      18.161  56.673  21.327  1.00  0.00     0.082 A 
ENDBRANCH  40  42
ENDBRANCH  39  40
ENDBRANCH  38  39
BRANCH  38  47
HETATM   47  N   UNL     1      17.106  62.193  21.541  1.00  0.00    -0.339 N 
HETATM   48  C   UNL     1      18.034  63.025  22.108  1.00  0.00     0.209 C 
HETATM   49  N   UNL     1      17.475  63.937  22.866  1.00  0.00    -0.254 NA
HETATM   50  C   UNL     1      16.137  63.806  22.657  1.00  0.00     0.142 C 
HETATM   51  C   UNL     1      15.870  62.776  21.777  1.00  0.00     0.026 C 
HETATM   52  C   UNL     1      14.567  62.421  21.163  1.00  0.00     0.070 C 
ENDBRANCH  38  47
ENDBRANCH  37  38
ENDBRANCH  36  37
BRANCH  36  53
HETATM   53  N   UNL     1      18.131  59.474  17.918  1.00  0.00    -0.345 N 
HETATM   54  C   UNL     1      17.212  58.778  17.184  1.00  0.00     0.209 A 
HETATM   55  N   UNL     1      17.611  57.547  16.957  1.00  0.00    -0.255 NA
HETATM   56  C   UNL     1      18.836  57.442  17.552  1.00  0.00     0.135 A 
HETATM   57  C   UNL     1      19.196  58.636  18.126  1.00  0.00     0.111 A 
ENDBRANCH  36  53
ENDBRANCH  35  36
ENDBRANCH  34  35
BRANCH  34  58
HETATM   58  N   UNL     1      16.439  62.794  15.577  1.00  0.00    -0.339 N 
HETATM   59  C   UNL     1      16.480  61.609  14.873  1.00  0.00     0.209 C 
HETATM   60  N   UNL     1      16.523  61.768  13.575  1.00  0.00    -0.254 NA
HETATM   61  C   UNL     1      16.658  63.101  13.403  1.00  0.00     0.142 C 
HETATM   62  C   UNL     1      16.744  63.759  14.617  1.00  0.00     0.026 C 
HETATM   63  C   UNL     1      17.165  65.173  14.772  1.00  0.00     0.070 C 
ENDBRANCH  34  58
ENDBRANCH  33  34
ENDBRANCH  32  33
BRANCH  32  64
HETATM   64  N   UNL     1      15.171  66.246  18.322  1.00  0.00    -0.344 N 
HETATM   65  C   UNL     1      14.751  66.732  17.111  1.00  0.00     0.111 A 
HETATM   66  C   UNL     1      14.311  68.013  17.336  1.00  0.00     0.135 A 
HETATM   67  N   UNL     1      14.486  68.351  18.640  1.00  0.00    -0.255 NA
HETATM   68  C   UNL     1      15.002  67.285  19.205  1.00  0.00     0.209 A 
ENDBRANCH  32  64
ENDBRANCH  31  32
ENDBRANCH  29  31
ENDBRANCH  23  29
ENDBRANCH  17  18
ENDBRANCH  11  17
BRANCH  12  69
HETATM   69  O   UNL     1      21.899  67.059  20.766  1.00  0.00    -0.391 OA
HETATM   70  H   UNL     1      21.996  66.399  20.051  1.00  0.00     0.210 HD
ENDBRANCH  12  69
BRANCH  13  71
HETATM   71  N   UNL     1      24.162  68.784  20.897  1.00  0.00     0.090 N 
HETATM   72  H   UNL     1      24.123  67.930  20.332  1.00  0.00     0.313 HD
HETATM   73  H   UNL     1      24.290  68.429  21.854  1.00  0.00     0.313 HD
ENDBRANCH  13  71
ENDBRANCH   7   8
ENDBRANCH   1   7
BRANCH   2  74
HETATM   74  C   UNL     1      21.382  69.838  26.396  1.00  0.00     0.198 C 
BRANCH  74  75
HETATM   75  O   UNL     1      21.244  69.332  27.718  1.00  0.00    -0.398 OA
HETATM   76  H   UNL     1      20.527  69.823  28.156  1.00  0.00     0.209 HD
ENDBRANCH  74  75
ENDBRANCH   2  74
BRANCH   3  77
HETATM   77  O   UNL     1      24.911  71.477  23.451  1.00  0.00    -0.391 OA
HETATM   78  H   UNL     1      24.862  70.735  22.824  1.00  0.00     0.210 HD
ENDBRANCH   3  77
BRANCH   4  79
HETATM   79  N   UNL     1      26.021  69.271  24.901  1.00  0.00     0.097 N 
HETATM   80  H   UNL     1      25.640  69.224  23.961  1.00  0.00     0.316 HD
BRANCH  79  81
HETATM   81  C   UNL     1      27.489  69.145  24.900  1.00  0.00     0.296 C 
BRANCH  81  82
HETATM   82  C   UNL     1      28.212  69.101  26.350  1.00  0.00     0.120 C 
BRANCH  82  83
HETATM   83  N   UNL     1      28.096  67.806  27.017  1.00  0.00    -0.344 N 
HETATM   84  C   UNL     1      27.023  66.952  27.039  1.00  0.00     0.111 A 
HETATM   85  C   UNL     1      27.405  65.893  27.831  1.00  0.00     0.135 A 
HETATM   86  N   UNL     1      28.662  66.094  28.327  1.00  0.00    -0.255 NA
HETATM   87  C   UNL     1      29.036  67.259  27.852  1.00  0.00     0.209 A 
ENDBRANCH  82  83
BRANCH  82  88
HETATM   88  C   UNL     1      29.657  69.721  26.281  1.00  0.00     0.053 C 
BRANCH  88  89
HETATM   89  C   UNL     1      30.358  70.607  27.399  1.00  0.00     0.094 C 
BRANCH  89  90
HETATM   90  C   UNL     1      31.891  70.989  27.150  1.00  0.00     0.051 C 
BRANCH  90  91
HETATM   91  C   UNL     1      33.001  70.607  28.237  1.00  0.00     0.094 C 
BRANCH  91  92
HETATM   92  N   UNL     1      33.901  71.725  28.545  1.00  0.00    -0.345 N 
HETATM   93  C   UNL     1      35.001  72.111  27.826  1.00  0.00     0.111 A 
HETATM   94  C   UNL     1      35.656  73.020  28.623  1.00  0.00     0.135 A 
HETATM   95  N   UNL     1      34.997  73.181  29.809  1.00  0.00    -0.255 NA
HETATM   96  C   UNL     1      33.941  72.404  29.733  1.00  0.00     0.209 A 
ENDBRANCH  91  92
BRANCH  91  97
HETATM   97  C   UNL     1      33.907  69.366  27.880  1.00  0.00     0.051 C 
BRANCH  97  98
HETATM   98  C   UNL     1      34.647  68.627  29.064  1.00  0.00     0.094 C 
BRANCH  98  99
HETATM   99  C   UNL     1      34.399  67.058  29.001  1.00  0.00     0.051 C 
BRANCH  99 100
HETATM  100  C   UNL     1      34.662  66.098  30.204  1.00  0.00     0.089 C 
HETATM  101  C   UNL     1      36.162  65.754  30.285  1.00  0.00     0.033 C 
BRANCH 100 102
HETATM  102  N   UNL     1      34.255  66.592  31.514  1.00  0.00    -0.334 N 
HETATM  103  C   UNL     1      32.986  66.903  31.924  1.00  0.00     0.082 A 
HETATM  104  C   UNL     1      33.131  67.322  33.227  1.00  0.00     0.150 A 
HETATM  105  N   UNL     1      34.448  67.313  33.604  1.00  0.00    -0.254 NA
HETATM  106  C   UNL     1      35.102  66.866  32.557  1.00  0.00     0.210 A 
ENDBRANCH 100 102
ENDBRANCH  99 100
ENDBRANCH  98  99
BRANCH  98 107
HETATM  107  N   UNL     1      35.993  69.044  29.435  1.00  0.00    -0.339 N 
HETATM  108  C   UNL     1      36.370  69.692  30.579  1.00  0.00     0.209 C 
HETATM  109  N   UNL     1      37.439  70.431  30.384  1.00  0.00    -0.254 NA
HETATM  110  C   UNL     1      37.925  70.039  29.176  1.00  0.00     0.142 C 
HETATM  111  C   UNL     1      37.117  69.065  28.624  1.00  0.00     0.026 C 
HETATM  112  C   UNL     1      37.434  68.160  27.501  1.00  0.00     0.070 C 
ENDBRANCH  98 107
ENDBRANCH  97  98
ENDBRANCH  91  97
ENDBRANCH  90  91
ENDBRANCH  89  90
BRANCH  89 113
HETATM  113  N   UNL     1      29.515  71.544  28.163  1.00  0.00    -0.339 N 
HETATM  114  C   UNL     1      29.446  71.941  29.485  1.00  0.00     0.026 C 
HETATM  115  C   UNL     1      28.459  72.913  29.527  1.00  0.00     0.142 C 
HETATM  116  C   UNL     1      30.238  71.536  30.662  1.00  0.00     0.070 C 
HETATM  117  N   UNL     1      28.063  73.268  28.280  1.00  0.00    -0.254 NA
HETATM  118  C   UNL     1      28.765  72.503  27.501  1.00  0.00     0.209 C 
ENDBRANCH  89 113
ENDBRANCH  88  89
ENDBRANCH  82  88
ENDBRANCH  81  82
ENDBRANCH  79  81
ENDBRANCH   4  79
BRANCH   5 119
HETATM  119  O   UNL     1      25.262  70.222  28.142  1.00  0.00    -0.348 OA
BRANCH 119 120
HETATM  120  C   UNL     1      24.635  71.021  29.194  1.00  0.00     0.186 C 
HETATM  121  C   UNL     1      23.673  72.093  28.624  1.00  0.00     0.179 C 
HETATM  122  O   UNL     1      22.292  71.818  28.911  1.00  0.00    -0.349 OA
HETATM  123  C   UNL     1      21.941  71.678  30.292  1.00  0.00     0.296 C 
HETATM  124  C   UNL     1      22.994  70.862  31.116  1.00  0.00     0.303 C 
HETATM  125  C   UNL     1      23.933  70.068  30.182  1.00  0.00     0.187 C 
BRANCH 121 126
HETATM  126  C   UNL     1      24.023  73.508  29.131  1.00  0.00     0.198 C 
BRANCH 126 127
HETATM  127  O   UNL     1      25.269  73.952  28.606  1.00  0.00    -0.398 OA
HETATM  128  H   UNL     1      25.091  74.447  27.782  1.00  0.00     0.209 HD
ENDBRANCH 126 127
ENDBRANCH 121 126
BRANCH 123 129
HETATM  129  O   UNL     1      20.667  71.024  30.339  1.00  0.00    -0.348 OA
BRANCH 129 130
HETATM  130  C   UNL     1      19.542  71.861  30.653  1.00  0.00     0.186 C 
HETATM  131  C   UNL     1      20.006  73.167  31.343  1.00  0.00     0.176 C 
HETATM  132  O   UNL     1      19.284  74.336  30.877  1.00  0.00    -0.379 OA
HETATM  133  C   UNL     1      17.879  74.123  30.729  1.00  0.00     0.206 C 
HETATM  134  C   UNL     1      17.576  73.103  29.610  1.00  0.00     0.272 C 
HETATM  135  C   UNL     1      18.813  72.212  29.334  1.00  0.00     0.184 C 
BRANCH 131 136
HETATM  136  C   UNL     1      19.904  73.110  32.874  1.00  0.00     0.198 C 
BRANCH 136 137
HETATM  137  O   UNL     1      20.056  71.764  33.322  1.00  0.00    -0.398 OA
HETATM  138  H   UNL     1      20.920  71.456  32.985  1.00  0.00     0.209 HD
ENDBRANCH 136 137
ENDBRANCH 131 136
BRANCH 134 139
HETATM  139  N   UNL     1      17.114  73.736  28.356  1.00  0.00     0.087 N 
HETATM  140  H   UNL     1      16.087  73.765  28.384  1.00  0.00     0.313 HD
HETATM  141  H   UNL     1      17.338  73.159  27.547  1.00  0.00     0.313 HD
ENDBRANCH 134 139
BRANCH 135 142
HETATM  142  O   UNL     1      19.691  72.893  28.412  1.00  0.00    -0.391 OA
HETATM  143  H   UNL     1      20.464  72.312  28.274  1.00  0.00     0.210 HD
ENDBRANCH 135 142
ENDBRANCH 129 130
ENDBRANCH 123 129
BRANCH 124 144
HETATM  144  N   UNL     1      22.381  70.007  32.158  1.00  0.00     0.090 N 
HETATM  145  H   UNL     1      21.368  70.127  32.142  1.00  0.00     0.313 HD
HETATM  146  H   UNL     1      22.651  70.441  33.053  1.00  0.00     0.313 HD
ENDBRANCH 124 144
BRANCH 125 147
HETATM  147  O   UNL     1      23.240  69.011  29.519  1.00  0.00    -0.391 OA
HETATM  148  H   UNL     1      22.523  69.425  28.999  1.00  0.00     0.210 HD
ENDBRANCH 125 147
ENDBRANCH 119 120
ENDBRANCH   5 119
TORSDOF 58
ENDMDL
MODEL 2
REMARK VINA RESULT:      -7.0      2.900      5.869
REMARK WARNING: 32 MAX_TORS EXCEEDED!!!
REMARK  58 active torsions:
REMARK  status: ('A' for Active; 'I' for Inactive)
REMARK    1  A    between atoms: C_1  and  O_30 
REMARK    2  A    between atoms: C_2  and  C_6 
REMARK    3  A    between atoms: C_3  and  O_9 
REMARK    4  A    between atoms: C_4  and  N_11 
REMARK    5  A    between atoms: C_5  and  O_12 
REMARK    6  A    between atoms: C_6  and  O_7 
REMARK    7  A    between atoms: N_11  and  C_118 
REMARK    8  A    between atoms: O_12  and  C_20 
REMARK    9  A    between atoms: O_14  and  C_18 
REMARK   10  A    between atoms: C_16  and  C_23 
REMARK   11  A    between atoms: O_17  and  C_23 
REMARK   12  A    between atoms: O_19  and  C_22 
REMARK   13  A    between atoms: O_19  and  C_42 
REMARK   14  A    between atoms: N_21  and  C_24 
REMARK   15  A    between atoms: O_26  and  C_29 
REMARK   16  A    between atoms: C_28  and  C_34 
REMARK   17  A    between atoms: O_30  and  C_33 
REMARK   18  A    between atoms: C_31  and  O_53 
REMARK   19  A    between atoms: N_32  and  C_35 
REMARK   20  A    between atoms: C_34  and  O_65 
REMARK   21  A    between atoms: O_37  and  C_41 
REMARK   22  A    between atoms: C_39  and  C_45 
REMARK   23  A    between atoms: O_40  and  C_45 
REMARK   24  A    between atoms: N_43  and  C_46 
REMARK   25  A    between atoms: O_48  and  C_52 
REMARK   26  A    between atoms: C_50  and  C_57 
REMARK   27  A    between atoms: O_51  and  C_57 
REMARK   28  A    between atoms: O_53  and  C_56 
REMARK   29  A    between atoms: N_55  and  C_58 
REMARK   30  A    between atoms: N_55  and  C_71 
REMARK   31  A    between atoms: C_71  and  C_73 
REMARK   32  A    between atoms: C_73  and  C_74 
REMARK   33  A    between atoms: C_73  and  N_87 
REMARK   34  A    between atoms: C_74  and  C_75 
REMARK   35  A    between atoms: C_75  and  C_76 
REMARK   36  A    between atoms: C_75  and  N_101 
REMARK   37  A    between atoms: C_76  and  C_77 
REMARK   38  A    between atoms: C_77  and  C_78 
REMARK   39  A    between atoms: C_77  and  N_91 
REMARK   40  A    between atoms: C_78  and  C_79 
REMARK   41  A    between atoms: C_79  and  C_80 
REMARK   42  A    between atoms: C_79  and  N_106 
REMARK   43  A    between atoms: C_80  and  C_81 
REMARK   44  A    between atoms: C_81  and  N_96 
REMARK   45  A    between atoms: N_113  and  C_119 
REMARK   46  A    between atoms: C_118  and  C_119 
REMARK   47  A    between atoms: C_119  and  C_126 
REMARK   48  A    between atoms: N_122  and  C_128 
REMARK   49  A    between atoms: C_124  and  C_128 
REMARK   50  A    between atoms: C_124  and  C_130 
REMARK   51  A    between atoms: N_125  and  C_135 
REMARK   52  A    between atoms: C_126  and  C_130 
REMARK   53  A    between atoms: C_128  and  C_132 
REMARK   54  A    between atoms: N_129  and  C_130 
REMARK   55  A    between atoms: C_132  and  C_137 
REMARK   56  A    between atoms: C_135  and  C_136 
REMARK   57  A    between atoms: C_136  and  C_137 
REMARK   58  A    between atoms: C_137  and  N_140 
ROOT
HETATM    1  C   UNL     1      22.961  70.218  24.535  1.00  0.00     0.186 C 
HETATM    2  C   UNL     1      22.673  69.241  25.738  1.00  0.00     0.179 C 
HETATM    3  C   UNL     1      24.160  71.196  24.747  1.00  0.00     0.188 C 
HETATM    4  C   UNL     1      25.263  70.623  25.683  1.00  0.00     0.306 C 
HETATM    5  C   UNL     1      24.413  70.322  26.960  1.00  0.00     0.296 C 
HETATM    6  O   UNL     1      23.716  69.113  26.743  1.00  0.00    -0.349 OA
ENDROOT
BRANCH   1   7
HETATM    7  O   UNL     1      23.144  69.454  23.328  1.00  0.00    -0.348 OA
BRANCH   7   8
HETATM    8  C   UNL     1      22.206  69.760  22.279  1.00  0.00     0.296 C 
HETATM    9  O   UNL     1      20.977  69.105  22.608  1.00  0.00    -0.349 OA
HETATM   10  C   UNL     1      19.920  69.236  21.635  1.00  0.00     0.179 C 
HETATM   11  C   UNL     1      20.396  68.908  20.202  1.00  0.00     0.186 C 
HETATM   12  C   UNL     1      21.803  68.290  20.231  1.00  0.00     0.187 C 
HETATM   13  C   UNL     1      22.770  69.279  20.897  1.00  0.00     0.303 C 
BRANCH  10  14
HETATM   14  C   UNL     1      19.275  70.633  21.718  1.00  0.00     0.198 C 
BRANCH  14  15
HETATM   15  O   UNL     1      18.958  71.149  20.427  1.00  0.00    -0.398 OA
HETATM   16  H   UNL     1      18.861  72.116  20.512  1.00  0.00     0.209 HD
ENDBRANCH  14  15
ENDBRANCH  10  14
BRANCH  11  17
HETATM   17  O   UNL     1      19.537  67.975  19.542  1.00  0.00    -0.348 OA
BRANCH  17  18
HETATM   18  C   UNL     1      20.158  67.180  18.538  1.00  0.00     0.296 C 
HETATM   19  O   UNL     1      20.269  67.938  17.339  1.00  0.00    -0.351 OA
HETATM   20  C   UNL     1      20.058  67.232  16.106  1.00  0.00     0.150 C 
HETATM   21  C   UNL     1      20.654  65.828  16.153  1.00  0.00     0.068 C 
HETATM   22  C   UNL     1      20.130  65.005  17.337  1.00  0.00     0.158 C 
HETATM   23  C   UNL     1      19.387  65.835  18.417  1.00  0.00     0.303 C 
BRANCH  20  24
HETATM   24  C   UNL     1      20.667  68.055  14.957  1.00  0.00     0.196 C 
BRANCH  24  25
HETATM   25  O   UNL     1      21.316  67.184  14.031  1.00  0.00    -0.398 OA
HETATM   26  H   UNL     1      22.043  67.685  13.623  1.00  0.00     0.209 HD
ENDBRANCH  24  25
ENDBRANCH  20  24
BRANCH  22  27
HETATM   27  O   UNL     1      19.277  63.961  16.848  1.00  0.00    -0.393 OA
HETATM   28  H   UNL     1      19.384  63.227  17.490  1.00  0.00     0.210 HD
ENDBRANCH  22  27
BRANCH  23  29
HETATM   29  N   UNL     1      17.941  65.883  18.054  1.00  0.00     0.097 N 
HETATM   30  H   UNL     1      17.817  66.707  17.459  1.00  0.00     0.316 HD
BRANCH  29  31
HETATM   31  C   UNL     1      16.987  66.089  19.159  1.00  0.00     0.296 C 
BRANCH  31  32
HETATM   32  C   UNL     1      16.768  64.861  20.136  1.00  0.00     0.120 C 
BRANCH  32  33
HETATM   33  C   UNL     1      17.463  65.160  21.512  1.00  0.00     0.053 C 
BRANCH  33  34
HETATM   34  C   UNL     1      16.617  65.539  22.793  1.00  0.00     0.094 C 
BRANCH  34  35
HETATM   35  C   UNL     1      17.423  65.046  24.087  1.00  0.00     0.051 C 
BRANCH  35  36
HETATM   36  C   UNL     1      18.978  64.847  24.133  1.00  0.00     0.094 C 
BRANCH  36  37
HETATM   37  C   UNL     1      19.735  65.964  24.934  1.00  0.00     0.051 C 
BRANCH  37  38
HETATM   38  C   UNL     1      18.999  66.508  26.197  1.00  0.00     0.094 C 
BRANCH  38  39
HETATM   39  C   UNL     1      19.909  66.494  27.476  1.00  0.00     0.051 C 
BRANCH  39  40
HETATM   40  C   UNL     1      19.881  65.334  28.510  1.00  0.00     0.089 C 
HETATM   41  C   UNL     1      18.658  64.439  28.238  1.00  0.00     0.033 C 
BRANCH  40  42
HETATM   42  N   UNL     1      21.061  64.485  28.565  1.00  0.00    -0.334 N 
HETATM   43  C   UNL     1      22.296  64.820  28.076  1.00  0.00     0.210 A 
HETATM   44  N   UNL     1      23.173  63.867  28.285  1.00  0.00    -0.254 NA
HETATM   45  C   UNL     1      22.483  62.885  28.947  1.00  0.00     0.150 A 
HETATM   46  C   UNL     1      21.171  63.254  29.150  1.00  0.00     0.082 A 
ENDBRANCH  40  42
ENDBRANCH  39  40
ENDBRANCH  38  39
BRANCH  38  47
HETATM   47  N   UNL     1      18.170  67.689  26.003  1.00  0.00    -0.339 N 
HETATM   48  C   UNL     1      18.327  68.639  25.031  1.00  0.00     0.209 C 
HETATM   49  N   UNL     1      17.543  69.672  25.226  1.00  0.00    -0.254 NA
HETATM   50  C   UNL     1      16.729  69.315  26.256  1.00  0.00     0.142 C 
HETATM   51  C   UNL     1      17.040  68.052  26.720  1.00  0.00     0.026 C 
HETATM   52  C   UNL     1      16.290  67.239  27.708  1.00  0.00     0.070 C 
ENDBRANCH  38  47
ENDBRANCH  37  38
ENDBRANCH  36  37
BRANCH  36  53
HETATM   53  N   UNL     1      19.348  63.559  24.730  1.00  0.00    -0.345 N 
HETATM   54  C   UNL     1      20.577  63.212  25.218  1.00  0.00     0.209 A 
HETATM   55  N   UNL     1      20.544  62.040  25.811  1.00  0.00    -0.255 NA
HETATM   56  C   UNL     1      19.249  61.616  25.718  1.00  0.00     0.135 A 
HETATM   57  C   UNL     1      18.479  62.558  25.081  1.00  0.00     0.111 A 
ENDBRANCH  36  53
ENDBRANCH  35  36
ENDBRANCH  34  35
BRANCH  34  58
HETATM   58  N   UNL     1      15.917  66.830  22.767  1.00  0.00    -0.339 N 
HETATM   59  C   UNL     1      16.443  67.953  22.162  1.00  0.00     0.209 C 
HETATM   60  N   UNL     1      15.707  69.024  22.310  1.00  0.00    -0.254 NA
HETATM   61  C   UNL     1      14.726  68.646  23.159  1.00  0.00     0.142 C 
HETATM   62  C   UNL     1      14.895  67.335  23.569  1.00  0.00     0.026 C 
HETATM   63  C   UNL     1      14.156  66.712  24.695  1.00  0.00     0.070 C 
ENDBRANCH  34  58
ENDBRANCH  33  34
ENDBRANCH  32  33
BRANCH  32  64
HETATM   64  N   UNL     1      16.993  63.531  19.565  1.00  0.00    -0.344 N 
HETATM   65  C   UNL     1      18.002  62.631  19.795  1.00  0.00     0.111 A 
HETATM   66  C   UNL     1      17.750  61.549  18.988  1.00  0.00     0.135 A 
HETATM   67  N   UNL     1      16.642  61.770  18.233  1.00  0.00    -0.255 NA
HETATM   68  C   UNL     1      16.213  62.956  18.592  1.00  0.00     0.209 A 
ENDBRANCH  32  64
ENDBRANCH  31  32
ENDBRANCH  29  31
ENDBRANCH  23  29
ENDBRANCH  17  18
ENDBRANCH  11  17
BRANCH  12  69
HETATM   69  O   UNL     1      21.819  67.024  20.911  1.00  0.00    -0.391 OA
HETATM   70  H   UNL     1      20.901  66.686  20.925  1.00  0.00     0.210 HD
ENDBRANCH  12  69
BRANCH  13  71
HETATM   71  N   UNL     1      24.125  68.695  20.950  1.00  0.00     0.090 N 
HETATM   72  H   UNL     1      24.268  68.425  21.928  1.00  0.00     0.313 HD
HETATM   73  H   UNL     1      24.767  69.490  20.827  1.00  0.00     0.313 HD
ENDBRANCH  13  71
ENDBRANCH   7   8
ENDBRANCH   1   7
BRANCH   2  74
HETATM   74  C   UNL     1      21.348  69.650  26.429  1.00  0.00     0.198 C 
BRANCH  74  75
HETATM   75  O   UNL     1      21.179  71.062  26.412  1.00  0.00    -0.398 OA
HETATM   76  H   UNL     1      20.474  71.275  25.777  1.00  0.00     0.209 HD
ENDBRANCH  74  75
ENDBRANCH   2  74
BRANCH   3  77
HETATM   77  O   UNL     1      24.683  71.697  23.512  1.00  0.00    -0.391 OA
HETATM   78  H   UNL     1      23.987  71.633  22.836  1.00  0.00     0.210 HD
ENDBRANCH   3  77
BRANCH   4  79
HETATM   79  N   UNL     1      26.014  69.582  24.913  1.00  0.00     0.097 N 
HETATM   80  H   UNL     1      25.720  69.601  23.941  1.00  0.00     0.316 HD
BRANCH  79  81
HETATM   81  C   UNL     1      27.480  69.503  25.036  1.00  0.00     0.296 C 
BRANCH  81  82
HETATM   82  C   UNL     1      28.056  68.877  26.416  1.00  0.00     0.120 C 
BRANCH  82  83
HETATM   83  N   UNL     1      27.548  67.537  26.701  1.00  0.00    -0.344 N 
HETATM   84  C   UNL     1      26.661  67.151  27.674  1.00  0.00     0.111 A 
HETATM   85  C   UNL     1      26.540  65.786  27.549  1.00  0.00     0.135 A 
HETATM   86  N   UNL     1      27.357  65.322  26.558  1.00  0.00    -0.255 NA
HETATM   87  C   UNL     1      27.971  66.384  26.092  1.00  0.00     0.209 A 
ENDBRANCH  82  83
BRANCH  82  88
HETATM   88  C   UNL     1      29.616  69.065  26.513  1.00  0.00     0.053 C 
BRANCH  88  89
HETATM   89  C   UNL     1      30.397  69.918  27.604  1.00  0.00     0.094 C 
BRANCH  89  90
HETATM   90  C   UNL     1      31.974  70.078  27.391  1.00  0.00     0.051 C 
BRANCH  90  91
HETATM   91  C   UNL     1      32.983  69.759  28.591  1.00  0.00     0.094 C 
BRANCH  91  92
HETATM   92  N   UNL     1      32.858  70.709  29.703  1.00  0.00    -0.345 N 
HETATM   93  C   UNL     1      32.431  70.428  30.974  1.00  0.00     0.111 A 
HETATM   94  C   UNL     1      32.242  71.651  31.572  1.00  0.00     0.135 A 
HETATM   95  N   UNL     1      32.523  72.662  30.697  1.00  0.00    -0.255 NA
HETATM   96  C   UNL     1      32.903  72.072  29.588  1.00  0.00     0.209 A 
ENDBRANCH  91  92
BRANCH  91  97
HETATM   97  C   UNL     1      34.510  69.699  28.200  1.00  0.00     0.051 C 
BRANCH  97  98
HETATM   98  C   UNL     1      35.269  68.328  28.401  1.00  0.00     0.094 C 
BRANCH  98  99
HETATM   99  C   UNL     1      36.730  68.388  27.775  1.00  0.00     0.051 C 
BRANCH  99 100
HETATM  100  C   UNL     1      38.022  68.601  28.628  1.00  0.00     0.089 C 
HETATM  101  C   UNL     1      38.989  67.419  28.422  1.00  0.00     0.033 C 
BRANCH 100 102
HETATM  102  N   UNL     1      38.765  69.827  28.362  1.00  0.00    -0.334 N 
HETATM  103  C   UNL     1      40.121  69.959  28.229  1.00  0.00     0.082 A 
HETATM  104  C   UNL     1      40.321  71.301  27.991  1.00  0.00     0.150 A 
HETATM  105  N   UNL     1      39.135  71.987  28.015  1.00  0.00    -0.254 NA
HETATM  106  C   UNL     1      38.215  71.076  28.236  1.00  0.00     0.210 A 
ENDBRANCH 100 102
ENDBRANCH  99 100
ENDBRANCH  98  99
BRANCH  98 107
HETATM  107  N   UNL     1      35.151  67.626  29.673  1.00  0.00    -0.339 N 
HETATM  108  C   UNL     1      34.730  66.339  29.867  1.00  0.00     0.209 C 
HETATM  109  N   UNL     1      34.176  66.187  31.049  1.00  0.00    -0.254 NA
HETATM  110  C   UNL     1      34.493  67.318  31.736  1.00  0.00     0.142 C 
HETATM  111  C   UNL     1      35.229  68.174  30.943  1.00  0.00     0.026 C 
HETATM  112  C   UNL     1      36.027  69.340  31.373  1.00  0.00     0.070 C 
ENDBRANCH  98 107
ENDBRANCH  97  98
ENDBRANCH  91  97
ENDBRANCH  90  91
ENDBRANCH  89  90
BRANCH  89 113
HETATM  113  N   UNL     1      29.665  71.004  28.281  1.00  0.00    -0.339 N 
HETATM  114  C   UNL     1      29.072  71.159  29.519  1.00  0.00     0.026 C 
HETATM  115  C   UNL     1      28.608  72.465  29.544  1.00  0.00     0.142 C 
HETATM  116  C   UNL     1      28.955  70.233  30.662  1.00  0.00     0.070 C 
HETATM  117  N   UNL     1      29.056  73.169  28.476  1.00  0.00    -0.254 NA
HETATM  118  C   UNL     1      29.743  72.301  27.798  1.00  0.00     0.209 C 
ENDBRANCH  89 113
ENDBRANCH  88  89
ENDBRANCH  82  88
ENDBRANCH  81  82
ENDBRANCH  79  81
ENDBRANCH   4  79
BRANCH   5 119
HETATM  119  O   UNL     1      25.177  70.384  28.175  1.00  0.00    -0.348 OA
BRANCH 119 120
HETATM  120  C   UNL     1      24.570  71.256  29.179  1.00  0.00     0.186 C 
HETATM  121  C   UNL     1      25.220  71.088  30.575  1.00  0.00     0.179 C 
HETATM  122  O   UNL     1      25.981  72.237  30.982  1.00  0.00    -0.349 OA
HETATM  123  C   UNL     1      25.281  73.485  31.029  1.00  0.00     0.296 C 
HETATM  124  C   UNL     1      24.310  73.692  29.818  1.00  0.00     0.303 C 
HETATM  125  C   UNL     1      24.636  72.710  28.671  1.00  0.00     0.187 C 
BRANCH 121 126
HETATM  126  C   UNL     1      24.174  70.764  31.662  1.00  0.00     0.198 C 
BRANCH 126 127
HETATM  127  O   UNL     1      22.866  70.666  31.109  1.00  0.00    -0.398 OA
HETATM  128  H   UNL     1      22.899  71.002  30.191  1.00  0.00     0.209 HD
ENDBRANCH 126 127
ENDBRANCH 121 126
BRANCH 123 129
HETATM  129  O   UNL     1      26.270  74.522  31.050  1.00  0.00    -0.348 OA
BRANCH 129 130
HETATM  130  C   UNL     1      26.593  75.055  32.345  1.00  0.00     0.186 C 
HETATM  131  C   UNL     1      28.127  75.091  32.556  1.00  0.00     0.176 C 
HETATM  132  O   UNL     1      28.574  76.303  33.215  1.00  0.00    -0.379 OA
HETATM  133  C   UNL     1      27.741  76.707  34.304  1.00  0.00     0.206 C 
HETATM  134  C   UNL     1      26.335  77.119  33.817  1.00  0.00     0.272 C 
HETATM  135  C   UNL     1      26.032  76.494  32.432  1.00  0.00     0.184 C 
BRANCH 131 136
HETATM  136  C   UNL     1      28.656  73.884  33.343  1.00  0.00     0.198 C 
BRANCH 136 137
HETATM  137  O   UNL     1      27.911  72.716  33.004  1.00  0.00    -0.398 OA
HETATM  138  H   UNL     1      27.002  72.863  33.333  1.00  0.00     0.209 HD
ENDBRANCH 136 137
ENDBRANCH 131 136
BRANCH 134 139
HETATM  139  N   UNL     1      26.142  78.583  33.769  1.00  0.00     0.087 N 
HETATM  140  H   UNL     1      27.063  79.021  33.903  1.00  0.00     0.313 HD
HETATM  141  H   UNL     1      25.581  78.908  34.555  1.00  0.00     0.313 HD
ENDBRANCH 134 139
BRANCH 135 142
HETATM  142  O   UNL     1      26.585  77.339  31.401  1.00  0.00    -0.391 OA
HETATM  143  H   UNL     1      25.949  78.067  31.259  1.00  0.00     0.210 HD
ENDBRANCH 135 142
ENDBRANCH 129 130
ENDBRANCH 123 129
BRANCH 124 144
HETATM  144  N   UNL     1      24.251  75.098  29.354  1.00  0.00     0.090 N 
HETATM  145  H   UNL     1      23.309  75.304  29.020  1.00  0.00     0.313 HD
HETATM  146  H   UNL     1      24.812  75.118  28.490  1.00  0.00     0.313 HD
ENDBRANCH 124 144
BRANCH 125 147
HETATM  147  O   UNL     1      25.890  73.016  28.061  1.00  0.00    -0.391 OA
HETATM  148  H   UNL     1      26.248  72.175  27.712  1.00  0.00     0.210 HD
ENDBRANCH 125 147
ENDBRANCH 119 120
ENDBRANCH   5 119
TORSDOF 58
ENDMDL
MODEL 3
REMARK VINA RESULT:      -6.9      3.056     17.158
REMARK WARNING: 32 MAX_TORS EXCEEDED!!!
REMARK  58 active torsions:
REMARK  status: ('A' for Active; 'I' for Inactive)
REMARK    1  A    between atoms: C_1  and  O_30 
REMARK    2  A    between atoms: C_2  and  C_6 
REMARK    3  A    between atoms: C_3  and  O_9 
REMARK    4  A    between atoms: C_4  and  N_11 
REMARK    5  A    between atoms: C_5  and  O_12 
REMARK    6  A    between atoms: C_6  and  O_7 
REMARK    7  A    between atoms: N_11  and  C_118 
REMARK    8  A    between atoms: O_12  and  C_20 
REMARK    9  A    between atoms: O_14  and  C_18 
REMARK   10  A    between atoms: C_16  and  C_23 
REMARK   11  A    between atoms: O_17  and  C_23 
REMARK   12  A    between atoms: O_19  and  C_22 
REMARK   13  A    between atoms: O_19  and  C_42 
REMARK   14  A    between atoms: N_21  and  C_24 
REMARK   15  A    between atoms: O_26  and  C_29 
REMARK   16  A    between atoms: C_28  and  C_34 
REMARK   17  A    between atoms: O_30  and  C_33 
REMARK   18  A    between atoms: C_31  and  O_53 
REMARK   19  A    between atoms: N_32  and  C_35 
REMARK   20  A    between atoms: C_34  and  O_65 
REMARK   21  A    between atoms: O_37  and  C_41 
REMARK   22  A    between atoms: C_39  and  C_45 
REMARK   23  A    between atoms: O_40  and  C_45 
REMARK   24  A    between atoms: N_43  and  C_46 
REMARK   25  A    between atoms: O_48  and  C_52 
REMARK   26  A    between atoms: C_50  and  C_57 
REMARK   27  A    between atoms: O_51  and  C_57 
REMARK   28  A    between atoms: O_53  and  C_56 
REMARK   29  A    between atoms: N_55  and  C_58 
REMARK   30  A    between atoms: N_55  and  C_71 
REMARK   31  A    between atoms: C_71  and  C_73 
REMARK   32  A    between atoms: C_73  and  C_74 
REMARK   33  A    between atoms: C_73  and  N_87 
REMARK   34  A    between atoms: C_74  and  C_75 
REMARK   35  A    between atoms: C_75  and  C_76 
REMARK   36  A    between atoms: C_75  and  N_101 
REMARK   37  A    between atoms: C_76  and  C_77 
REMARK   38  A    between atoms: C_77  and  C_78 
REMARK   39  A    between atoms: C_77  and  N_91 
REMARK   40  A    between atoms: C_78  and  C_79 
REMARK   41  A    between atoms: C_79  and  C_80 
REMARK   42  A    between atoms: C_79  and  N_106 
REMARK   43  A    between atoms: C_80  and  C_81 
REMARK   44  A    between atoms: C_81  and  N_96 
REMARK   45  A    between atoms: N_113  and  C_119 
REMARK   46  A    between atoms: C_118  and  C_119 
REMARK   47  A    between atoms: C_119  and  C_126 
REMARK   48  A    between atoms: N_122  and  C_128 
REMARK   49  A    between atoms: C_124  and  C_128 
REMARK   50  A    between atoms: C_124  and  C_130 
REMARK   51  A    between atoms: N_125  and  C_135 
REMARK   52  A    between atoms: C_126  and  C_130 
REMARK   53  A    between atoms: C_128  and  C_132 
REMARK   54  A    between atoms: N_129  and  C_130 
REMARK   55  A    between atoms: C_132  and  C_137 
REMARK   56  A    between atoms: C_135  and  C_136 
REMARK   57  A    between atoms: C_136  and  C_137 
REMARK   58  A    between atoms: C_137  and  N_140 
ROOT
HETATM    1  C   UNL     1      21.853  69.772  22.297  1.00  0.00     0.186 C 
HETATM    2  C   UNL     1      22.435  68.763  21.234  1.00  0.00     0.179 C 
HETATM    3  C   UNL     1      20.395  70.261  22.020  1.00  0.00     0.188 C 
HETATM    4  C   UNL     1      19.534  69.220  21.248  1.00  0.00     0.306 C 
HETATM    5  C   UNL     1      20.422  69.013  19.978  1.00  0.00     0.296 C 
HETATM    6  O   UNL     1      21.482  68.146  20.326  1.00  0.00    -0.349 OA
ENDROOT
BRANCH   1   7
HETATM    7  O   UNL     1      21.945  69.191  23.611  1.00  0.00    -0.348 OA
BRANCH   7   8
HETATM    8  C   UNL     1      23.031  69.696  24.413  1.00  0.00     0.296 C 
HETATM    9  O   UNL     1      23.831  68.573  24.794  1.00  0.00    -0.349 OA
HETATM   10  C   UNL     1      24.943  68.867  25.666  1.00  0.00     0.179 C 
HETATM   11  C   UNL     1      24.528  69.732  26.877  1.00  0.00     0.186 C 
HETATM   12  C   UNL     1      22.997  69.840  26.962  1.00  0.00     0.187 C 
HETATM   13  C   UNL     1      22.467  70.460  25.660  1.00  0.00     0.303 C 
BRANCH  10  14
HETATM   14  C   UNL     1      26.100  69.507  24.875  1.00  0.00     0.198 C 
BRANCH  14  15
HETATM   15  O   UNL     1      26.830  68.538  24.126  1.00  0.00    -0.398 OA
HETATM   16  H   UNL     1      26.494  68.560  23.211  1.00  0.00     0.209 HD
ENDBRANCH  14  15
ENDBRANCH  10  14
BRANCH  11  17
HETATM   17  O   UNL     1      24.983  69.187  28.119  1.00  0.00    -0.348 OA
BRANCH  17  18
HETATM   18  C   UNL     1      25.607  67.912  28.031  1.00  0.00     0.296 C 
HETATM   19  O   UNL     1      24.711  66.915  28.512  1.00  0.00    -0.351 OA
HETATM   20  C   UNL     1      25.288  65.839  29.268  1.00  0.00     0.150 C 
HETATM   21  C   UNL     1      26.637  65.410  28.697  1.00  0.00     0.068 C 
HETATM   22  C   UNL     1      27.628  66.576  28.587  1.00  0.00     0.158 C 
HETATM   23  C   UNL     1      26.987  67.979  28.746  1.00  0.00     0.303 C 
BRANCH  20  24
HETATM   24  C   UNL     1      24.295  64.664  29.288  1.00  0.00     0.196 C 
BRANCH  24  25
HETATM   25  O   UNL     1      23.989  64.268  27.951  1.00  0.00    -0.398 OA
HETATM   26  H   UNL     1      23.735  65.069  27.462  1.00  0.00     0.209 HD
ENDBRANCH  24  25
ENDBRANCH  20  24
BRANCH  22  27
HETATM   27  O   UNL     1      28.673  66.402  29.552  1.00  0.00    -0.393 OA
HETATM   28  H   UNL     1      28.412  66.967  30.311  1.00  0.00     0.210 HD
ENDBRANCH  22  27
BRANCH  23  29
HETATM   29  N   UNL     1      27.012  68.343  30.192  1.00  0.00     0.097 N 
HETATM   30  H   UNL     1      26.035  68.427  30.489  1.00  0.00     0.316 HD
BRANCH  29  31
HETATM   31  C   UNL     1      27.609  69.645  30.539  1.00  0.00     0.296 C 
BRANCH  31  32
HETATM   32  C   UNL     1      29.085  69.901  30.025  1.00  0.00     0.120 C 
BRANCH  32  33
HETATM   33  C   UNL     1      30.026  70.166  31.253  1.00  0.00     0.053 C 
BRANCH  33  34
HETATM   34  C   UNL     1      31.535  69.695  31.248  1.00  0.00     0.094 C 
BRANCH  34  35
HETATM   35  C   UNL     1      31.590  68.190  31.797  1.00  0.00     0.051 C 
BRANCH  35  36
HETATM   36  C   UNL     1      32.868  67.526  32.418  1.00  0.00     0.094 C 
BRANCH  36  37
HETATM   37  C   UNL     1      34.171  68.386  32.256  1.00  0.00     0.051 C 
BRANCH  37  38
HETATM   38  C   UNL     1      35.233  67.824  31.261  1.00  0.00     0.094 C 
BRANCH  38  39
HETATM   39  C   UNL     1      36.330  68.884  30.890  1.00  0.00     0.051 C 
BRANCH  39  40
HETATM   40  C   UNL     1      36.115  70.412  31.082  1.00  0.00     0.089 C 
HETATM   41  C   UNL     1      36.888  70.882  32.327  1.00  0.00     0.033 C 
BRANCH  40  42
HETATM   42  N   UNL     1      36.492  71.265  29.965  1.00  0.00    -0.334 N 
HETATM   43  C   UNL     1      36.997  70.822  28.771  1.00  0.00     0.210 A 
HETATM   44  N   UNL     1      37.224  71.816  27.945  1.00  0.00    -0.254 NA
HETATM   45  C   UNL     1      36.838  72.941  28.625  1.00  0.00     0.150 A 
HETATM   46  C   UNL     1      36.361  72.623  29.877  1.00  0.00     0.082 A 
ENDBRANCH  40  42
ENDBRANCH  39  40
ENDBRANCH  38  39
BRANCH  38  47
HETATM   47  N   UNL     1      35.700  66.468  31.512  1.00  0.00    -0.339 N 
HETATM   48  C   UNL     1      35.567  65.396  30.672  1.00  0.00     0.209 C 
HETATM   49  N   UNL     1      35.922  64.274  31.251  1.00  0.00    -0.254 NA
HETATM   50  C   UNL     1      36.463  64.642  32.444  1.00  0.00     0.142 C 
HETATM   51  C   UNL     1      36.410  66.011  32.612  1.00  0.00     0.026 C 
HETATM   52  C   UNL     1      37.038  66.818  33.686  1.00  0.00     0.070 C 
ENDBRANCH  38  47
ENDBRANCH  37  38
ENDBRANCH  36  37
BRANCH  36  53
HETATM   53  N   UNL     1      32.704  67.255  33.850  1.00  0.00    -0.345 N 
HETATM   54  C   UNL     1      31.888  67.925  34.717  1.00  0.00     0.209 A 
HETATM   55  N   UNL     1      31.865  67.350  35.898  1.00  0.00    -0.255 NA
HETATM   56  C   UNL     1      32.683  66.261  35.793  1.00  0.00     0.135 A 
HETATM   57  C   UNL     1      33.189  66.161  34.520  1.00  0.00     0.111 A 
ENDBRANCH  36  53
ENDBRANCH  35  36
ENDBRANCH  34  35
BRANCH  34  58
HETATM   58  N   UNL     1      32.363  70.132  30.116  1.00  0.00    -0.339 N 
HETATM   59  C   UNL     1      32.503  71.458  29.761  1.00  0.00     0.209 C 
HETATM   60  N   UNL     1      33.218  71.641  28.681  1.00  0.00    -0.254 NA
HETATM   61  C   UNL     1      33.451  70.394  28.214  1.00  0.00     0.142 C 
HETATM   62  C   UNL     1      32.827  69.439  28.999  1.00  0.00     0.026 C 
HETATM   63  C   UNL     1      32.660  68.018  28.608  1.00  0.00     0.070 C 
ENDBRANCH  34  58
ENDBRANCH  33  34
ENDBRANCH  32  33
BRANCH  32  64
HETATM   64  N   UNL     1      29.226  70.810  28.885  1.00  0.00    -0.344 N 
HETATM   65  C   UNL     1      29.007  72.161  28.802  1.00  0.00     0.111 A 
HETATM   66  C   UNL     1      29.265  72.518  27.501  1.00  0.00     0.135 A 
HETATM   67  N   UNL     1      29.593  71.423  26.766  1.00  0.00    -0.255 NA
HETATM   68  C   UNL     1      29.559  70.420  27.611  1.00  0.00     0.209 A 
ENDBRANCH  32  64
ENDBRANCH  31  32
ENDBRANCH  29  31
ENDBRANCH  23  29
ENDBRANCH  17  18
ENDBRANCH  11  17
BRANCH  12  69
HETATM   69  O   UNL     1      22.381  68.564  27.206  1.00  0.00    -0.391 OA
HETATM   70  H   UNL     1      21.677  68.446  26.537  1.00  0.00     0.210 HD
ENDBRANCH  12  69
BRANCH  13  71
HETATM   71  N   UNL     1      20.994  70.556  25.715  1.00  0.00     0.090 N 
HETATM   72  H   UNL     1      20.791  71.177  26.505  1.00  0.00     0.313 HD
HETATM   73  H   UNL     1      20.676  69.636  26.048  1.00  0.00     0.313 HD
ENDBRANCH  13  71
ENDBRANCH   7   8
ENDBRANCH   1   7
BRANCH   2  74
HETATM   74  C   UNL     1      23.542  69.466  20.409  1.00  0.00     0.198 C 
BRANCH  74  75
HETATM   75  O   UNL     1      23.405  70.880  20.471  1.00  0.00    -0.398 OA
HETATM   76  H   UNL     1      23.121  71.117  21.372  1.00  0.00     0.209 HD
ENDBRANCH  74  75
ENDBRANCH   2  74
BRANCH   3  77
HETATM   77  O   UNL     1      19.750  70.753  23.198  1.00  0.00    -0.391 OA
HETATM   78  H   UNL     1      19.474  71.671  23.036  1.00  0.00     0.210 HD
ENDBRANCH   3  77
BRANCH   4  79
HETATM   79  N   UNL     1      19.178  68.127  22.207  1.00  0.00     0.097 N 
HETATM   80  H   UNL     1      18.681  68.521  23.000  1.00  0.00     0.316 HD
BRANCH  79  81
HETATM   81  C   UNL     1      18.524  66.905  21.707  1.00  0.00     0.296 C 
BRANCH  81  82
HETATM   82  C   UNL     1      16.936  66.765  21.999  1.00  0.00     0.120 C 
BRANCH  82  83
HETATM   83  N   UNL     1      16.100  67.376  20.968  1.00  0.00    -0.344 N 
HETATM   84  C   UNL     1      16.104  67.141  19.617  1.00  0.00     0.111 A 
HETATM   85  C   UNL     1      15.162  67.992  19.086  1.00  0.00     0.135 A 
HETATM   86  N   UNL     1      14.612  68.768  20.066  1.00  0.00    -0.255 NA
HETATM   87  C   UNL     1      15.215  68.403  21.173  1.00  0.00     0.209 A 
ENDBRANCH  82  83
BRANCH  82  88
HETATM   88  C   UNL     1      16.565  65.292  22.411  1.00  0.00     0.053 C 
BRANCH  88  89
HETATM   89  C   UNL     1      17.519  64.248  23.138  1.00  0.00     0.094 C 
BRANCH  89  90
HETATM   90  C   UNL     1      17.338  64.096  24.720  1.00  0.00     0.051 C 
BRANCH  90  91
HETATM   91  C   UNL     1      18.427  64.713  25.716  1.00  0.00     0.094 C 
BRANCH  91  92
HETATM   92  N   UNL     1      18.446  66.181  25.695  1.00  0.00    -0.345 N 
HETATM   93  C   UNL     1      17.359  67.013  25.735  1.00  0.00     0.111 A 
HETATM   94  C   UNL     1      17.849  68.264  25.439  1.00  0.00     0.135 A 
HETATM   95  N   UNL     1      19.194  68.210  25.203  1.00  0.00    -0.255 NA
HETATM   96  C   UNL     1      19.531  66.953  25.376  1.00  0.00     0.209 A 
ENDBRANCH  91  92
BRANCH  91  97
HETATM   97  C   UNL     1      19.910  64.225  25.492  1.00  0.00     0.051 C 
BRANCH  97  98
HETATM   98  C   UNL     1      20.655  63.545  26.707  1.00  0.00     0.094 C 
BRANCH  98  99
HETATM   99  C   UNL     1      20.785  64.551  27.932  1.00  0.00     0.051 C 
BRANCH  99 100
HETATM  100  C   UNL     1      19.708  64.681  29.055  1.00  0.00     0.089 C 
HETATM  101  C   UNL     1      20.337  64.373  30.427  1.00  0.00     0.033 C 
BRANCH 100 102
HETATM  102  N   UNL     1      19.048  65.977  29.157  1.00  0.00    -0.334 N 
HETATM  103  C   UNL     1      17.721  66.214  29.396  1.00  0.00     0.082 A 
HETATM  104  C   UNL     1      17.603  67.586  29.396  1.00  0.00     0.150 A 
HETATM  105  N   UNL     1      18.806  68.183  29.124  1.00  0.00    -0.254 NA
HETATM  106  C   UNL     1      19.659  67.193  28.989  1.00  0.00     0.210 A 
ENDBRANCH 100 102
ENDBRANCH  99 100
ENDBRANCH  98  99
BRANCH  98 107
HETATM  107  N   UNL     1      20.347  62.162  27.050  1.00  0.00    -0.339 N 
HETATM  108  C   UNL     1      19.107  61.612  27.221  1.00  0.00     0.209 C 
HETATM  109  N   UNL     1      19.140  60.602  28.060  1.00  0.00    -0.254 NA
HETATM  110  C   UNL     1      20.460  60.316  28.219  1.00  0.00     0.142 C 
HETATM  111  C   UNL     1      21.234  61.189  27.481  1.00  0.00     0.026 C 
HETATM  112  C   UNL     1      22.660  61.048  27.123  1.00  0.00     0.070 C 
ENDBRANCH  98 107
ENDBRANCH  97  98
ENDBRANCH  91  97
ENDBRANCH  90  91
ENDBRANCH  89  90
BRANCH  89 113
HETATM  113  N   UNL     1      17.971  63.076  22.367  1.00  0.00    -0.339 N 
HETATM  114  C   UNL     1      18.134  61.730  22.639  1.00  0.00     0.026 C 
HETATM  115  C   UNL     1      18.535  61.159  21.442  1.00  0.00     0.142 C 
HETATM  116  C   UNL     1      17.901  60.955  23.872  1.00  0.00     0.070 C 
HETATM  117  N   UNL     1      18.437  62.040  20.417  1.00  0.00    -0.254 NA
HETATM  118  C   UNL     1      18.022  63.132  20.984  1.00  0.00     0.209 C 
ENDBRANCH  89 113
ENDBRANCH  88  89
ENDBRANCH  82  88
ENDBRANCH  81  82
ENDBRANCH  79  81
ENDBRANCH   4  79
BRANCH   5 119
HETATM  119  O   UNL     1      19.668  68.630  18.817  1.00  0.00    -0.348 OA
BRANCH 119 120
HETATM  120  C   UNL     1      20.254  67.487  18.117  1.00  0.00     0.186 C 
HETATM  121  C   UNL     1      19.371  66.218  18.220  1.00  0.00     0.179 C 
HETATM  122  O   UNL     1      18.771  65.848  16.969  1.00  0.00    -0.349 OA
HETATM  123  C   UNL     1      19.665  65.609  15.876  1.00  0.00     0.296 C 
HETATM  124  C   UNL     1      20.836  66.646  15.801  1.00  0.00     0.303 C 
HETATM  125  C   UNL     1      20.527  67.895  16.656  1.00  0.00     0.187 C 
BRANCH 121 126
HETATM  126  C   UNL     1      20.158  65.014  18.780  1.00  0.00     0.198 C 
BRANCH 126 127
HETATM  127  O   UNL     1      21.207  65.437  19.645  1.00  0.00    -0.398 OA
HETATM  128  H   UNL     1      21.953  64.815  19.542  1.00  0.00     0.209 HD
ENDBRANCH 126 127
ENDBRANCH 121 126
BRANCH 123 129
HETATM  129  O   UNL     1      18.885  65.661  14.675  1.00  0.00    -0.348 OA
BRANCH 129 130
HETATM  130  C   UNL     1      17.510  65.264  14.801  1.00  0.00     0.186 C 
HETATM  131  C   UNL     1      16.589  66.202  13.982  1.00  0.00     0.176 C 
HETATM  132  O   UNL     1      15.536  65.487  13.287  1.00  0.00    -0.379 OA
HETATM  133  C   UNL     1      14.918  64.465  14.072  1.00  0.00     0.206 C 
HETATM  134  C   UNL     1      15.907  63.325  14.396  1.00  0.00     0.272 C 
HETATM  135  C   UNL     1      17.370  63.818  14.269  1.00  0.00     0.184 C 
BRANCH 131 136
HETATM  136  C   UNL     1      15.949  67.310  14.829  1.00  0.00     0.198 C 
BRANCH 136 137
HETATM  137  O   UNL     1      16.803  67.643  15.922  1.00  0.00    -0.398 OA
HETATM  138  H   UNL     1      17.269  68.464  15.669  1.00  0.00     0.209 HD
ENDBRANCH 136 137
ENDBRANCH 131 136
BRANCH 134 139
HETATM  139  N   UNL     1      15.700  62.122  13.561  1.00  0.00     0.087 N 
HETATM  140  H   UNL     1      16.620  61.689  13.409  1.00  0.00     0.313 HD
HETATM  141  H   UNL     1      15.371  62.372  12.630  1.00  0.00     0.313 HD
ENDBRANCH 134 139
BRANCH 135 142
HETATM  142  O   UNL     1      17.784  63.722  12.889  1.00  0.00    -0.391 OA
HETATM  143  H   UNL     1      18.738  63.515  12.893  1.00  0.00     0.210 HD
ENDBRANCH 135 142
ENDBRANCH 129 130
ENDBRANCH 123 129
BRANCH 124 144
HETATM  144  N   UNL     1      21.217  66.995  14.412  1.00  0.00     0.090 N 
HETATM  145  H   UNL     1      20.495  67.587  14.002  1.00  0.00     0.313 HD
HETATM  146  H   UNL     1      21.124  66.117  13.882  1.00  0.00     0.313 HD
ENDBRANCH 124 144
BRANCH 125 147
HETATM  147  O   UNL     1      19.460  68.660  16.096  1.00  0.00    -0.391 OA
HETATM  148  H   UNL     1      18.795  68.023  15.768  1.00  0.00     0.210 HD
ENDBRANCH 125 147
ENDBRANCH 119 120
ENDBRANCH   5 119
TORSDOF 58
ENDMDL
MODEL 4
REMARK VINA RESULT:      -6.8      2.284      5.112
REMARK WARNING: 32 MAX_TORS EXCEEDED!!!
REMARK  58 active torsions:
REMARK  status: ('A' for Active; 'I' for Inactive)
REMARK    1  A    between atoms: C_1  and  O_30 
REMARK    2  A    between atoms: C_2  and  C_6 
REMARK    3  A    between atoms: C_3  and  O_9 
REMARK    4  A    between atoms: C_4  and  N_11 
REMARK    5  A    between atoms: C_5  and  O_12 
REMARK    6  A    between atoms: C_6  and  O_7 
REMARK    7  A    between atoms: N_11  and  C_118 
REMARK    8  A    between atoms: O_12  and  C_20 
REMARK    9  A    between atoms: O_14  and  C_18 
REMARK   10  A    between atoms: C_16  and  C_23 
REMARK   11  A    between atoms: O_17  and  C_23 
REMARK   12  A    between atoms: O_19  and  C_22 
REMARK   13  A    between atoms: O_19  and  C_42 
REMARK   14  A    between atoms: N_21  and  C_24 
REMARK   15  A    between atoms: O_26  and  C_29 
REMARK   16  A    between atoms: C_28  and  C_34 
REMARK   17  A    between atoms: O_30  and  C_33 
REMARK   18  A    between atoms: C_31  and  O_53 
REMARK   19  A    between atoms: N_32  and  C_35 
REMARK   20  A    between atoms: C_34  and  O_65 
REMARK   21  A    between atoms: O_37  and  C_41 
REMARK   22  A    between atoms: C_39  and  C_45 
REMARK   23  A    between atoms: O_40  and  C_45 
REMARK   24  A    between atoms: N_43  and  C_46 
REMARK   25  A    between atoms: O_48  and  C_52 
REMARK   26  A    between atoms: C_50  and  C_57 
REMARK   27  A    between atoms: O_51  and  C_57 
REMARK   28  A    between atoms: O_53  and  C_56 
REMARK   29  A    between atoms: N_55  and  C_58 
REMARK   30  A    between atoms: N_55  and  C_71 
REMARK   31  A    between atoms: C_71  and  C_73 
REMARK   32  A    between atoms: C_73  and  C_74 
REMARK   33  A    between atoms: C_73  and  N_87 
REMARK   34  A    between atoms: C_74  and  C_75 
REMARK   35  A    between atoms: C_75  and  C_76 
REMARK   36  A    between atoms: C_75  and  N_101 
REMARK   37  A    between atoms: C_76  and  C_77 
REMARK   38  A    between atoms: C_77  and  C_78 
REMARK   39  A    between atoms: C_77  and  N_91 
REMARK   40  A    between atoms: C_78  and  C_79 
REMARK   41  A    between atoms: C_79  and  C_80 
REMARK   42  A    between atoms: C_79  and  N_106 
REMARK   43  A    between atoms: C_80  and  C_81 
REMARK   44  A    between atoms: C_81  and  N_96 
REMARK   45  A    between atoms: N_113  and  C_119 
REMARK   46  A    between atoms: C_118  and  C_119 
REMARK   47  A    between atoms: C_119  and  C_126 
REMARK   48  A    between atoms: N_122  and  C_128 
REMARK   49  A    between atoms: C_124  and  C_128 
REMARK   50  A    between atoms: C_124  and  C_130 
REMARK   51  A    between atoms: N_125  and  C_135 
REMARK   52  A    between atoms: C_126  and  C_130 
REMARK   53  A    between atoms: C_128  and  C_132 
REMARK   54  A    between atoms: N_129  and  C_130 
REMARK   55  A    between atoms: C_132  and  C_137 
REMARK   56  A    between atoms: C_135  and  C_136 
REMARK   57  A    between atoms: C_136  and  C_137 
REMARK   58  A    between atoms: C_137  and  N_140 
ROOT
HETATM    1  C   UNL     1      23.023  70.159  24.379  1.00  0.00     0.186 C 
HETATM    2  C   UNL     1      22.633  69.103  25.484  1.00  0.00     0.179 C 
HETATM    3  C   UNL     1      24.246  71.066  24.731  1.00  0.00     0.188 C 
HETATM    4  C   UNL     1      25.274  70.374  25.672  1.00  0.00     0.306 C 
HETATM    5  C   UNL     1      24.345  70.010  26.876  1.00  0.00     0.296 C 
HETATM    6  O   UNL     1      23.615  68.852  26.526  1.00  0.00    -0.349 OA
ENDROOT
BRANCH   1   7
HETATM    7  O   UNL     1      23.243  69.485  23.126  1.00  0.00    -0.348 OA
BRANCH   7   8
HETATM    8  C   UNL     1      22.231  69.732  22.130  1.00  0.00     0.296 C 
HETATM    9  O   UNL     1      21.065  69.003  22.523  1.00  0.00    -0.349 OA
HETATM   10  C   UNL     1      19.950  69.070  21.609  1.00  0.00     0.179 C 
HETATM   11  C   UNL     1      20.367  68.771  20.151  1.00  0.00     0.186 C 
HETATM   12  C   UNL     1      21.808  68.239  20.102  1.00  0.00     0.187 C 
HETATM   13  C   UNL     1      22.748  69.287  20.718  1.00  0.00     0.303 C 
BRANCH  10  14
HETATM   14  C   UNL     1      19.226  70.424  21.731  1.00  0.00     0.198 C 
BRANCH  14  15
HETATM   15  O   UNL     1      19.063  71.055  20.463  1.00  0.00    -0.398 OA
HETATM   16  H   UNL     1      19.163  72.016  20.597  1.00  0.00     0.209 HD
ENDBRANCH  14  15
ENDBRANCH  10  14
BRANCH  11  17
HETATM   17  O   UNL     1      19.532  67.786  19.536  1.00  0.00    -0.348 OA
BRANCH  17  18
HETATM   18  C   UNL     1      19.525  67.797  18.113  1.00  0.00     0.296 C 
HETATM   19  O   UNL     1      18.180  67.829  17.648  1.00  0.00    -0.351 OA
HETATM   20  C   UNL     1      17.885  67.059  16.472  1.00  0.00     0.150 C 
HETATM   21  C   UNL     1      19.022  67.126  15.456  1.00  0.00     0.068 C 
HETATM   22  C   UNL     1      20.369  66.696  16.051  1.00  0.00     0.158 C 
HETATM   23  C   UNL     1      20.389  66.609  17.599  1.00  0.00     0.303 C 
BRANCH  20  24
HETATM   24  C   UNL     1      16.568  67.574  15.865  1.00  0.00     0.196 C 
BRANCH  24  25
HETATM   25  O   UNL     1      15.519  67.466  16.827  1.00  0.00    -0.398 OA
HETATM   26  H   UNL     1      15.386  68.349  17.212  1.00  0.00     0.209 HD
ENDBRANCH  24  25
ENDBRANCH  20  24
BRANCH  22  27
HETATM   27  O   UNL     1      20.758  65.438  15.485  1.00  0.00    -0.393 OA
HETATM   28  H   UNL     1      19.934  64.906  15.464  1.00  0.00     0.210 HD
ENDBRANCH  22  27
BRANCH  23  29
HETATM   29  N   UNL     1      19.989  65.228  17.994  1.00  0.00     0.097 N 
HETATM   30  H   UNL     1      19.151  65.000  17.450  1.00  0.00     0.316 HD
BRANCH  29  31
HETATM   31  C   UNL     1      19.574  65.032  19.394  1.00  0.00     0.296 C 
BRANCH  31  32
HETATM   32  C   UNL     1      18.087  64.538  19.625  1.00  0.00     0.120 C 
BRANCH  32  33
HETATM   33  C   UNL     1      17.881  64.197  21.144  1.00  0.00     0.053 C 
BRANCH  33  34
HETATM   34  C   UNL     1      16.639  64.755  21.949  1.00  0.00     0.094 C 
BRANCH  34  35
HETATM   35  C   UNL     1      17.191  65.629  23.174  1.00  0.00     0.051 C 
BRANCH  35  36
HETATM   36  C   UNL     1      16.319  66.078  24.397  1.00  0.00     0.094 C 
BRANCH  36  37
HETATM   37  C   UNL     1      16.358  65.076  25.605  1.00  0.00     0.051 C 
BRANCH  37  38
HETATM   38  C   UNL     1      17.450  63.964  25.525  1.00  0.00     0.094 C 
BRANCH  38  39
HETATM   39  C   UNL     1      18.386  63.949  26.786  1.00  0.00     0.051 C 
BRANCH  39  40
HETATM   40  C   UNL     1      19.727  64.733  26.841  1.00  0.00     0.089 C 
HETATM   41  C   UNL     1      20.097  65.208  25.425  1.00  0.00     0.033 C 
BRANCH  40  42
HETATM   42  N   UNL     1      19.770  65.884  27.731  1.00  0.00    -0.334 N 
HETATM   43  C   UNL     1      20.797  66.176  28.590  1.00  0.00     0.210 A 
HETATM   44  N   UNL     1      20.571  67.286  29.251  1.00  0.00    -0.254 NA
HETATM   45  C   UNL     1      19.360  67.736  28.792  1.00  0.00     0.150 A 
HETATM   46  C   UNL     1      18.851  66.891  27.831  1.00  0.00     0.082 A 
ENDBRANCH  40  42
ENDBRANCH  39  40
ENDBRANCH  38  39
BRANCH  38  47
HETATM   47  N   UNL     1      17.017  62.668  25.024  1.00  0.00    -0.339 N 
HETATM   48  C   UNL     1      15.741  62.172  25.052  1.00  0.00     0.209 C 
HETATM   49  N   UNL     1      15.698  60.911  24.696  1.00  0.00    -0.254 NA
HETATM   50  C   UNL     1      16.954  60.619  24.259  1.00  0.00     0.142 C 
HETATM   51  C   UNL     1      17.788  61.713  24.378  1.00  0.00     0.026 C 
HETATM   52  C   UNL     1      19.171  61.860  23.863  1.00  0.00     0.070 C 
ENDBRANCH  38  47
ENDBRANCH  37  38
ENDBRANCH  36  37
BRANCH  36  53
HETATM   53  N   UNL     1      16.729  67.389  24.910  1.00  0.00    -0.345 N 
HETATM   54  C   UNL     1      17.808  68.122  24.501  1.00  0.00     0.209 A 
HETATM   55  N   UNL     1      17.820  69.312  25.059  1.00  0.00    -0.255 NA
HETATM   56  C   UNL     1      16.706  69.361  25.846  1.00  0.00     0.135 A 
HETATM   57  C   UNL     1      15.993  68.191  25.745  1.00  0.00     0.111 A 
ENDBRANCH  36  53
ENDBRANCH  35  36
ENDBRANCH  34  35
BRANCH  34  58
HETATM   58  N   UNL     1      15.476  65.181  21.161  1.00  0.00    -0.339 N 
HETATM   59  C   UNL     1      14.571  64.291  20.621  1.00  0.00     0.209 C 
HETATM   60  N   UNL     1      13.647  64.857  19.890  1.00  0.00    -0.254 NA
HETATM   61  C   UNL     1      14.020  66.154  19.818  1.00  0.00     0.142 C 
HETATM   62  C   UNL     1      15.216  66.370  20.480  1.00  0.00     0.026 C 
HETATM   63  C   UNL     1      16.024  67.608  20.359  1.00  0.00     0.070 C 
ENDBRANCH  34  58
ENDBRANCH  33  34
ENDBRANCH  32  33
BRANCH  32  64
HETATM   64  N   UNL     1      17.571  63.563  18.661  1.00  0.00    -0.344 N 
HETATM   65  C   UNL     1      17.898  62.244  18.478  1.00  0.00     0.111 A 
HETATM   66  C   UNL     1      17.137  61.796  17.426  1.00  0.00     0.135 A 
HETATM   67  N   UNL     1      16.382  62.808  16.923  1.00  0.00    -0.255 NA
HETATM   68  C   UNL     1      16.661  63.849  17.672  1.00  0.00     0.209 A 
ENDBRANCH  32  64
ENDBRANCH  31  32
ENDBRANCH  29  31
ENDBRANCH  23  29
ENDBRANCH  17  18
ENDBRANCH  11  17
BRANCH  12  69
HETATM   69  O   UNL     1      21.940  66.977  20.777  1.00  0.00    -0.391 OA
HETATM   70  H   UNL     1      21.537  67.075  21.663  1.00  0.00     0.210 HD
ENDBRANCH  12  69
BRANCH  13  71
HETATM   71  N   UNL     1      24.138  68.786  20.696  1.00  0.00     0.090 N 
HETATM   72  H   UNL     1      24.280  68.418  19.750  1.00  0.00     0.313 HD
HETATM   73  H   UNL     1      24.130  67.940  21.281  1.00  0.00     0.313 HD
ENDBRANCH  13  71
ENDBRANCH   7   8
ENDBRANCH   1   7
BRANCH   2  74
HETATM   74  C   UNL     1      21.289  69.512  26.137  1.00  0.00     0.198 C 
BRANCH  74  75
HETATM   75  O   UNL     1      20.552  70.380  25.286  1.00  0.00    -0.398 OA
HETATM   76  H   UNL     1      19.678  69.981  25.132  1.00  0.00     0.209 HD
ENDBRANCH  74  75
ENDBRANCH   2  74
BRANCH   3  77
HETATM   77  O   UNL     1      24.853  71.639  23.569  1.00  0.00    -0.391 OA
HETATM   78  H   UNL     1      24.173  71.729  22.879  1.00  0.00     0.210 HD
ENDBRANCH   3  77
BRANCH   4  79
HETATM   79  N   UNL     1      26.025  69.366  24.860  1.00  0.00     0.097 N 
HETATM   80  H   UNL     1      25.746  69.439  23.887  1.00  0.00     0.316 HD
BRANCH  79  81
HETATM   81  C   UNL     1      27.488  69.264  25.001  1.00  0.00     0.296 C 
BRANCH  81  82
HETATM   82  C   UNL     1      28.044  68.793  26.448  1.00  0.00     0.120 C 
BRANCH  82  83
HETATM   83  N   UNL     1      27.648  67.432  26.806  1.00  0.00    -0.344 N 
HETATM   84  C   UNL     1      27.720  66.295  26.043  1.00  0.00     0.111 A 
HETATM   85  C   UNL     1      27.192  65.289  26.820  1.00  0.00     0.135 A 
HETATM   86  N   UNL     1      26.761  65.786  28.018  1.00  0.00    -0.255 NA
HETATM   87  C   UNL     1      27.015  67.072  27.968  1.00  0.00     0.209 A 
ENDBRANCH  82  83
BRANCH  82  88
HETATM   88  C   UNL     1      29.571  69.137  26.606  1.00  0.00     0.053 C 
BRANCH  88  89
HETATM   89  C   UNL     1      30.204  70.170  27.636  1.00  0.00     0.094 C 
BRANCH  89  90
HETATM   90  C   UNL     1      31.731  70.577  27.393  1.00  0.00     0.051 C 
BRANCH  90  91
HETATM   91  C   UNL     1      32.882  69.971  28.325  1.00  0.00     0.094 C 
BRANCH  91  92
HETATM   92  N   UNL     1      34.214  70.490  27.989  1.00  0.00    -0.345 N 
HETATM   93  C   UNL     1      34.495  71.670  27.353  1.00  0.00     0.111 A 
HETATM   94  C   UNL     1      35.832  71.603  27.038  1.00  0.00     0.135 A 
HETATM   95  N   UNL     1      36.363  70.412  27.446  1.00  0.00    -0.255 NA
HETATM   96  C   UNL     1      35.376  69.767  28.025  1.00  0.00     0.209 A 
ENDBRANCH  91  92
BRANCH  91  97
HETATM   97  C   UNL     1      32.988  68.397  28.342  1.00  0.00     0.051 C 
BRANCH  97  98
HETATM   98  C   UNL     1      33.165  67.685  29.741  1.00  0.00     0.094 C 
BRANCH  98  99
HETATM   99  C   UNL     1      34.282  66.556  29.669  1.00  0.00     0.051 C 
BRANCH  99 100
HETATM  100  C   UNL     1      35.572  66.566  30.549  1.00  0.00     0.089 C 
HETATM  101  C   UNL     1      35.844  65.154  31.101  1.00  0.00     0.033 C 
BRANCH 100 102
HETATM  102  N   UNL     1      36.790  67.020  29.889  1.00  0.00    -0.334 N 
HETATM  103  C   UNL     1      37.724  67.892  30.383  1.00  0.00     0.082 A 
HETATM  104  C   UNL     1      38.670  67.995  29.387  1.00  0.00     0.150 A 
HETATM  105  N   UNL     1      38.317  67.246  28.295  1.00  0.00    -0.254 NA
HETATM  106  C   UNL     1      37.186  66.667  28.625  1.00  0.00     0.210 A 
ENDBRANCH 100 102
ENDBRANCH  99 100
ENDBRANCH  98  99
BRANCH  98 107
HETATM  107  N   UNL     1      33.150  68.488  30.958  1.00  0.00    -0.339 N 
HETATM  108  C   UNL     1      34.138  69.318  31.410  1.00  0.00     0.209 C 
HETATM  109  N   UNL     1      34.121  69.419  32.720  1.00  0.00    -0.254 NA
HETATM  110  C   UNL     1      32.936  68.871  33.101  1.00  0.00     0.142 C 
HETATM  111  C   UNL     1      32.242  68.410  32.001  1.00  0.00     0.026 C 
HETATM  112  C   UNL     1      30.814  68.040  31.926  1.00  0.00     0.070 C 
ENDBRANCH  98 107
ENDBRANCH  97  98
ENDBRANCH  91  97
ENDBRANCH  90  91
ENDBRANCH  89  90
BRANCH  89 113
HETATM  113  N   UNL     1      29.304  71.157  28.260  1.00  0.00    -0.339 N 
HETATM  114  C   UNL     1      28.422  71.140  29.324  1.00  0.00     0.026 C 
HETATM  115  C   UNL     1      27.938  72.435  29.421  1.00  0.00     0.142 C 
HETATM  116  C   UNL     1      28.049  70.060  30.258  1.00  0.00     0.070 C 
HETATM  117  N   UNL     1      28.618  73.279  28.607  1.00  0.00    -0.254 NA
HETATM  118  C   UNL     1      29.469  72.508  28.002  1.00  0.00     0.209 C 
ENDBRANCH  89 113
ENDBRANCH  88  89
ENDBRANCH  82  88
ENDBRANCH  81  82
ENDBRANCH  79  81
ENDBRANCH   4  79
BRANCH   5 119
HETATM  119  O   UNL     1      25.043  69.943  28.129  1.00  0.00    -0.348 OA
BRANCH 119 120
HETATM  120  C   UNL     1      24.411  70.751  29.171  1.00  0.00     0.186 C 
HETATM  121  C   UNL     1      23.430  71.800  28.588  1.00  0.00     0.179 C 
HETATM  122  O   UNL     1      22.055  71.511  28.888  1.00  0.00    -0.349 OA
HETATM  123  C   UNL     1      21.714  71.390  30.273  1.00  0.00     0.296 C 
HETATM  124  C   UNL     1      22.783  70.603  31.104  1.00  0.00     0.303 C 
HETATM  125  C   UNL     1      23.728  69.806  30.179  1.00  0.00     0.187 C 
BRANCH 121 126
HETATM  126  C   UNL     1      23.763  73.228  29.068  1.00  0.00     0.198 C 
BRANCH 126 127
HETATM  127  O   UNL     1      24.982  73.695  28.499  1.00  0.00    -0.398 OA
HETATM  128  H   UNL     1      25.306  73.013  27.879  1.00  0.00     0.209 HD
ENDBRANCH 126 127
ENDBRANCH 121 126
BRANCH 123 129
HETATM  129  O   UNL     1      20.449  70.718  30.338  1.00  0.00    -0.348 OA
BRANCH 129 130
HETATM  130  C   UNL     1      19.288  71.565  30.329  1.00  0.00     0.186 C 
HETATM  131  C   UNL     1      18.521  71.431  28.991  1.00  0.00     0.176 C 
HETATM  132  O   UNL     1      17.082  71.401  29.170  1.00  0.00    -0.379 OA
HETATM  133  C   UNL     1      16.600  72.351  30.122  1.00  0.00     0.206 C 
HETATM  134  C   UNL     1      17.097  72.026  31.548  1.00  0.00     0.272 C 
HETATM  135  C   UNL     1      18.364  71.135  31.494  1.00  0.00     0.184 C 
BRANCH 131 136
HETATM  136  C   UNL     1      18.864  72.538  27.985  1.00  0.00     0.198 C 
BRANCH 136 137
HETATM  137  O   UNL     1      18.702  72.053  26.652  1.00  0.00    -0.398 OA
HETATM  138  H   UNL     1      17.896  71.499  26.656  1.00  0.00     0.209 HD
ENDBRANCH 136 137
ENDBRANCH 131 136
BRANCH 134 139
HETATM  139  N   UNL     1      16.064  71.392  32.393  1.00  0.00     0.087 N 
HETATM  140  H   UNL     1      15.404  72.126  32.679  1.00  0.00     0.313 HD
HETATM  141  H   UNL     1      16.461  71.043  33.263  1.00  0.00     0.313 HD
ENDBRANCH 134 139
BRANCH 135 142
HETATM  142  O   UNL     1      17.965  69.753  31.367  1.00  0.00    -0.391 OA
HETATM  143  H   UNL     1      17.026  69.703  31.629  1.00  0.00     0.210 HD
ENDBRANCH 135 142
ENDBRANCH 129 130
ENDBRANCH 123 129
BRANCH 124 144
HETATM  144  N   UNL     1      22.188  69.757  32.165  1.00  0.00     0.090 N 
HETATM  145  H   UNL     1      22.593  70.010  33.066  1.00  0.00     0.313 HD
HETATM  146  H   UNL     1      22.567  68.814  31.998  1.00  0.00     0.313 HD
ENDBRANCH 124 144
BRANCH 125 147
HETATM  147  O   UNL     1      23.046  68.728  29.538  1.00  0.00    -0.391 OA
HETATM  148  H   UNL     1      22.091  68.857  29.705  1.00  0.00     0.210 HD
ENDBRANCH 125 147
ENDBRANCH 119 120
ENDBRANCH   5 119
TORSDOF 58
ENDMDL
MODEL 5
REMARK VINA RESULT:      -6.8      4.268     11.038
REMARK WARNING: 32 MAX_TORS EXCEEDED!!!
REMARK  58 active torsions:
REMARK  status: ('A' for Active; 'I' for Inactive)
REMARK    1  A    between atoms: C_1  and  O_30 
REMARK    2  A    between atoms: C_2  and  C_6 
REMARK    3  A    between atoms: C_3  and  O_9 
REMARK    4  A    between atoms: C_4  and  N_11 
REMARK    5  A    between atoms: C_5  and  O_12 
REMARK    6  A    between atoms: C_6  and  O_7 
REMARK    7  A    between atoms: N_11  and  C_118 
REMARK    8  A    between atoms: O_12  and  C_20 
REMARK    9  A    between atoms: O_14  and  C_18 
REMARK   10  A    between atoms: C_16  and  C_23 
REMARK   11  A    between atoms: O_17  and  C_23 
REMARK   12  A    between atoms: O_19  and  C_22 
REMARK   13  A    between atoms: O_19  and  C_42 
REMARK   14  A    between atoms: N_21  and  C_24 
REMARK   15  A    between atoms: O_26  and  C_29 
REMARK   16  A    between atoms: C_28  and  C_34 
REMARK   17  A    between atoms: O_30  and  C_33 
REMARK   18  A    between atoms: C_31  and  O_53 
REMARK   19  A    between atoms: N_32  and  C_35 
REMARK   20  A    between atoms: C_34  and  O_65 
REMARK   21  A    between atoms: O_37  and  C_41 
REMARK   22  A    between atoms: C_39  and  C_45 
REMARK   23  A    between atoms: O_40  and  C_45 
REMARK   24  A    between atoms: N_43  and  C_46 
REMARK   25  A    between atoms: O_48  and  C_52 
REMARK   26  A    between atoms: C_50  and  C_57 
REMARK   27  A    between atoms: O_51  and  C_57 
REMARK   28  A    between atoms: O_53  and  C_56 
REMARK   29  A    between atoms: N_55  and  C_58 
REMARK   30  A    between atoms: N_55  and  C_71 
REMARK   31  A    between atoms: C_71  and  C_73 
REMARK   32  A    between atoms: C_73  and  C_74 
REMARK   33  A    between atoms: C_73  and  N_87 
REMARK   34  A    between atoms: C_74  and  C_75 
REMARK   35  A    between atoms: C_75  and  C_76 
REMARK   36  A    between atoms: C_75  and  N_101 
REMARK   37  A    between atoms: C_76  and  C_77 
REMARK   38  A    between atoms: C_77  and  C_78 
REMARK   39  A    between atoms: C_77  and  N_91 
REMARK   40  A    between atoms: C_78  and  C_79 
REMARK   41  A    between atoms: C_79  and  C_80 
REMARK   42  A    between atoms: C_79  and  N_106 
REMARK   43  A    between atoms: C_80  and  C_81 
REMARK   44  A    between atoms: C_81  and  N_96 
REMARK   45  A    between atoms: N_113  and  C_119 
REMARK   46  A    between atoms: C_118  and  C_119 
REMARK   47  A    between atoms: C_119  and  C_126 
REMARK   48  A    between atoms: N_122  and  C_128 
REMARK   49  A    between atoms: C_124  and  C_128 
REMARK   50  A    between atoms: C_124  and  C_130 
REMARK   51  A    between atoms: N_125  and  C_135 
REMARK   52  A    between atoms: C_126  and  C_130 
REMARK   53  A    between atoms: C_128  and  C_132 
REMARK   54  A    between atoms: N_129  and  C_130 
REMARK   55  A    between atoms: C_132  and  C_137 
REMARK   56  A    between atoms: C_135  and  C_136 
REMARK   57  A    between atoms: C_136  and  C_137 
REMARK   58  A    between atoms: C_137  and  N_140 
ROOT
HETATM    1  C   UNL     1      26.444  69.956  26.191  1.00  0.00     0.186 C 
HETATM    2  C   UNL     1      26.981  70.256  27.643  1.00  0.00     0.179 C 
HETATM    3  C   UNL     1      27.449  69.217  25.251  1.00  0.00     0.188 C 
HETATM    4  C   UNL     1      28.442  68.296  26.017  1.00  0.00     0.306 C 
HETATM    5  C   UNL     1      29.083  69.333  26.995  1.00  0.00     0.296 C 
HETATM    6  O   UNL     1      28.178  69.543  28.059  1.00  0.00    -0.349 OA
ENDROOT
BRANCH   1   7
HETATM    7  O   UNL     1      25.207  69.225  26.278  1.00  0.00    -0.348 OA
BRANCH   7   8
HETATM    8  C   UNL     1      24.037  70.047  26.457  1.00  0.00     0.296 C 
HETATM    9  O   UNL     1      23.217  69.406  27.437  1.00  0.00    -0.349 OA
HETATM   10  C   UNL     1      21.953  70.048  27.709  1.00  0.00     0.179 C 
HETATM   11  C   UNL     1      21.174  70.384  26.418  1.00  0.00     0.186 C 
HETATM   12  C   UNL     1      21.838  69.721  25.201  1.00  0.00     0.187 C 
HETATM   13  C   UNL     1      23.287  70.219  25.090  1.00  0.00     0.303 C 
BRANCH  10  14
HETATM   14  C   UNL     1      22.155  71.292  28.596  1.00  0.00     0.198 C 
BRANCH  14  15
HETATM   15  O   UNL     1      23.008  71.020  29.705  1.00  0.00    -0.398 OA
HETATM   16  H   UNL     1      23.922  71.219  29.428  1.00  0.00     0.209 HD
ENDBRANCH  14  15
ENDBRANCH  10  14
BRANCH  11  17
HETATM   17  O   UNL     1      19.820  69.926  26.463  1.00  0.00    -0.348 OA
BRANCH  17  18
HETATM   18  C   UNL     1      18.834  70.909  26.171  1.00  0.00     0.296 C 
HETATM   19  O   UNL     1      18.827  71.890  27.203  1.00  0.00    -0.351 OA
HETATM   20  C   UNL     1      17.546  72.414  27.587  1.00  0.00     0.150 C 
HETATM   21  C   UNL     1      16.631  72.603  26.380  1.00  0.00     0.068 C 
HETATM   22  C   UNL     1      16.458  71.314  25.565  1.00  0.00     0.158 C 
HETATM   23  C   UNL     1      17.477  70.196  25.908  1.00  0.00     0.303 C 
BRANCH  20  24
HETATM   24  C   UNL     1      17.762  73.743  28.332  1.00  0.00     0.196 C 
BRANCH  24  25
HETATM   25  O   UNL     1      18.893  73.635  29.194  1.00  0.00    -0.398 OA
HETATM   26  H   UNL     1      19.238  72.729  29.108  1.00  0.00     0.209 HD
ENDBRANCH  24  25
ENDBRANCH  20  24
BRANCH  22  27
HETATM   27  O   UNL     1      15.121  70.826  25.729  1.00  0.00    -0.393 OA
HETATM   28  H   UNL     1      14.545  71.595  25.531  1.00  0.00     0.210 HD
ENDBRANCH  22  27
BRANCH  23  29
HETATM   29  N   UNL     1      16.900  69.359  27.000  1.00  0.00     0.097 N 
HETATM   30  H   UNL     1      17.599  69.334  27.748  1.00  0.00     0.316 HD
BRANCH  29  31
HETATM   31  C   UNL     1      16.654  67.940  26.687  1.00  0.00     0.296 C 
BRANCH  31  32
HETATM   32  C   UNL     1      17.834  66.934  27.010  1.00  0.00     0.120 C 
BRANCH  32  33
HETATM   33  C   UNL     1      18.397  66.344  25.669  1.00  0.00     0.053 C 
BRANCH  33  34
HETATM   34  C   UNL     1      17.483  66.208  24.385  1.00  0.00     0.094 C 
BRANCH  34  35
HETATM   35  C   UNL     1      18.112  67.119  23.226  1.00  0.00     0.051 C 
BRANCH  35  36
HETATM   36  C   UNL     1      19.589  66.996  22.713  1.00  0.00     0.094 C 
BRANCH  36  37
HETATM   37  C   UNL     1      19.781  65.915  21.591  1.00  0.00     0.051 C 
BRANCH  37  38
HETATM   38  C   UNL     1      18.696  65.903  20.471  1.00  0.00     0.094 C 
BRANCH  38  39
HETATM   39  C   UNL     1      19.256  66.384  19.085  1.00  0.00     0.051 C 
BRANCH  39  40
HETATM   40  C   UNL     1      20.595  65.859  18.497  1.00  0.00     0.089 C 
HETATM   41  C   UNL     1      20.394  65.498  17.015  1.00  0.00     0.033 C 
BRANCH  40  42
HETATM   42  N   UNL     1      21.741  66.751  18.596  1.00  0.00    -0.334 N 
HETATM   43  C   UNL     1      22.905  66.466  19.260  1.00  0.00     0.210 A 
HETATM   44  N   UNL     1      23.769  67.448  19.161  1.00  0.00    -0.254 NA
HETATM   45  C   UNL     1      23.146  68.397  18.393  1.00  0.00     0.150 A 
HETATM   46  C   UNL     1      21.890  67.978  18.013  1.00  0.00     0.082 A 
ENDBRANCH  40  42
ENDBRANCH  39  40
ENDBRANCH  38  39
BRANCH  38  47
HETATM   47  N   UNL     1      17.806  64.751  20.446  1.00  0.00    -0.339 N 
HETATM   48  C   UNL     1      18.183  63.436  20.414  1.00  0.00     0.209 C 
HETATM   49  N   UNL     1      17.162  62.638  20.213  1.00  0.00    -0.254 NA
HETATM   50  C   UNL     1      16.063  63.438  20.285  1.00  0.00     0.142 C 
HETATM   51  C   UNL     1      16.421  64.754  20.504  1.00  0.00     0.026 C 
HETATM   52  C   UNL     1      15.527  65.898  20.809  1.00  0.00     0.070 C 
ENDBRANCH  38  47
ENDBRANCH  37  38
ENDBRANCH  36  37
BRANCH  36  53
HETATM   53  N   UNL     1      20.091  68.267  22.180  1.00  0.00    -0.345 N 
HETATM   54  C   UNL     1      19.459  69.477  22.230  1.00  0.00     0.209 A 
HETATM   55  N   UNL     1      20.233  70.443  21.789  1.00  0.00    -0.255 NA
HETATM   56  C   UNL     1      21.413  69.844  21.453  1.00  0.00     0.135 A 
HETATM   57  C   UNL     1      21.363  68.497  21.719  1.00  0.00     0.111 A 
ENDBRANCH  36  53
ENDBRANCH  35  36
ENDBRANCH  34  35
BRANCH  34  58
HETATM   58  N   UNL     1      16.931  64.877  24.103  1.00  0.00    -0.339 N 
HETATM   59  C   UNL     1      15.598  64.568  24.279  1.00  0.00     0.209 C 
HETATM   60  N   UNL     1      15.313  63.313  24.048  1.00  0.00    -0.254 NA
HETATM   61  C   UNL     1      16.513  62.725  23.845  1.00  0.00     0.142 C 
HETATM   62  C   UNL     1      17.548  63.631  24.001  1.00  0.00     0.026 C 
HETATM   63  C   UNL     1      18.978  63.251  24.115  1.00  0.00     0.070 C 
ENDBRANCH  34  58
ENDBRANCH  33  34
ENDBRANCH  32  33
BRANCH  32  64
HETATM   64  N   UNL     1      17.592  65.977  28.094  1.00  0.00    -0.344 N 
HETATM   65  C   UNL     1      17.890  64.642  28.175  1.00  0.00     0.111 A 
HETATM   66  C   UNL     1      17.429  64.213  29.395  1.00  0.00     0.135 A 
HETATM   67  N   UNL     1      16.815  65.232  30.054  1.00  0.00    -0.255 NA
HETATM   68  C   UNL     1      16.922  66.269  29.256  1.00  0.00     0.209 A 
ENDBRANCH  32  64
ENDBRANCH  31  32
ENDBRANCH  29  31
ENDBRANCH  23  29
ENDBRANCH  17  18
ENDBRANCH  11  17
BRANCH  12  69
HETATM   69  O   UNL     1      21.796  68.286  25.280  1.00  0.00    -0.391 OA
HETATM   70  H   UNL     1      21.334  68.052  26.110  1.00  0.00     0.210 HD
ENDBRANCH  12  69
BRANCH  13  71
HETATM   71  N   UNL     1      23.949  69.579  23.935  1.00  0.00     0.090 N 
HETATM   72  H   UNL     1      23.825  70.230  23.154  1.00  0.00     0.313 HD
HETATM   73  H   UNL     1      23.343  68.787  23.681  1.00  0.00     0.313 HD
ENDBRANCH  13  71
ENDBRANCH   7   8
ENDBRANCH   1   7
BRANCH   2  74
HETATM   74  C   UNL     1      27.214  71.779  27.803  1.00  0.00     0.198 C 
BRANCH  74  75
HETATM   75  O   UNL     1      26.010  72.445  28.163  1.00  0.00    -0.398 OA
HETATM   76  H   UNL     1      26.121  73.393  27.972  1.00  0.00     0.209 HD
ENDBRANCH  74  75
ENDBRANCH   2  74
BRANCH   3  77
HETATM   77  O   UNL     1      26.794  68.551  24.167  1.00  0.00    -0.391 OA
HETATM   78  H   UNL     1      26.405  69.224  23.583  1.00  0.00     0.210 HD
ENDBRANCH   3  77
BRANCH   4  79
HETATM   79  N   UNL     1      27.685  67.083  26.460  1.00  0.00     0.097 N 
HETATM   80  H   UNL     1      27.239  66.650  25.658  1.00  0.00     0.316 HD
BRANCH  79  81
HETATM   81  C   UNL     1      28.348  66.086  27.318  1.00  0.00     0.296 C 
BRANCH  81  82
HETATM   82  C   UNL     1      27.395  65.261  28.337  1.00  0.00     0.120 C 
BRANCH  82  83
HETATM   83  N   UNL     1      27.808  65.371  29.735  1.00  0.00    -0.344 N 
HETATM   84  C   UNL     1      28.179  64.369  30.594  1.00  0.00     0.111 A 
HETATM   85  C   UNL     1      28.437  64.986  31.798  1.00  0.00     0.135 A 
HETATM   86  N   UNL     1      28.194  66.327  31.710  1.00  0.00    -0.255 NA
HETATM   87  C   UNL     1      27.788  66.523  30.478  1.00  0.00     0.209 A 
ENDBRANCH  82  83
BRANCH  82  88
HETATM   88  C   UNL     1      25.875  65.538  28.037  1.00  0.00     0.053 C 
BRANCH  88  89
HETATM   89  C   UNL     1      24.635  64.761  28.658  1.00  0.00     0.094 C 
BRANCH  89  90
HETATM   90  C   UNL     1      24.606  64.618  30.251  1.00  0.00     0.051 C 
BRANCH  90  91
HETATM   91  C   UNL     1      23.649  65.556  31.124  1.00  0.00     0.094 C 
BRANCH  91  92
HETATM   92  N   UNL     1      24.292  66.817  31.512  1.00  0.00    -0.345 N 
HETATM   93  C   UNL     1      24.760  67.148  32.757  1.00  0.00     0.111 A 
HETATM   94  C   UNL     1      25.036  68.493  32.695  1.00  0.00     0.135 A 
HETATM   95  N   UNL     1      24.732  68.991  31.460  1.00  0.00    -0.255 NA
HETATM   96  C   UNL     1      24.300  67.964  30.764  1.00  0.00     0.209 A 
ENDBRANCH  91  92
BRANCH  91  97
HETATM   97  C   UNL     1      23.071  64.905  32.440  1.00  0.00     0.051 C 
BRANCH  97  98
HETATM   98  C   UNL     1      21.564  64.434  32.430  1.00  0.00     0.094 C 
BRANCH  98  99
HETATM   99  C   UNL     1      20.723  65.234  31.344  1.00  0.00     0.051 C 
BRANCH  99 100
HETATM  100  C   UNL     1      19.787  66.434  31.695  1.00  0.00     0.089 C 
HETATM  101  C   UNL     1      18.889  66.068  32.893  1.00  0.00     0.033 C 
BRANCH 100 102
HETATM  102  N   UNL     1      20.454  67.690  32.015  1.00  0.00    -0.334 N 
HETATM  103  C   UNL     1      21.009  68.050  33.214  1.00  0.00     0.082 A 
HETATM  104  C   UNL     1      21.505  69.318  33.004  1.00  0.00     0.150 A 
HETATM  105  N   UNL     1      21.232  69.749  31.732  1.00  0.00    -0.254 NA
HETATM  106  C   UNL     1      20.603  68.749  31.158  1.00  0.00     0.210 A 
ENDBRANCH 100 102
ENDBRANCH  99 100
ENDBRANCH  98  99
BRANCH  98 107
HETATM  107  N   UNL     1      21.258  63.014  32.551  1.00  0.00    -0.339 N 
HETATM  108  C   UNL     1      21.626  62.016  31.691  1.00  0.00     0.209 C 
HETATM  109  N   UNL     1      20.766  61.023  31.710  1.00  0.00    -0.254 NA
HETATM  110  C   UNL     1      19.983  61.254  32.797  1.00  0.00     0.142 C 
HETATM  111  C   UNL     1      20.364  62.421  33.428  1.00  0.00     0.026 C 
HETATM  112  C   UNL     1      20.002  62.872  34.786  1.00  0.00     0.070 C 
ENDBRANCH  98 107
ENDBRANCH  97  98
ENDBRANCH  91  97
ENDBRANCH  90  91
ENDBRANCH  89  90
BRANCH  89 113
HETATM  113  N   UNL     1      23.352  64.822  27.935  1.00  0.00    -0.339 N 
HETATM  114  C   UNL     1      22.348  63.917  27.645  1.00  0.00     0.026 C 
HETATM  115  C   UNL     1      21.376  64.646  26.979  1.00  0.00     0.142 C 
HETATM  116  C   UNL     1      22.207  62.486  27.977  1.00  0.00     0.070 C 
HETATM  117  N   UNL     1      21.640  65.974  27.019  1.00  0.00    -0.254 NA
HETATM  118  C   UNL     1      22.766  66.048  27.661  1.00  0.00     0.209 C 
ENDBRANCH  89 113
ENDBRANCH  88  89
ENDBRANCH  82  88
ENDBRANCH  81  82
ENDBRANCH  79  81
ENDBRANCH   4  79
BRANCH   5 119
HETATM  119  O   UNL     1      30.422  68.990  27.384  1.00  0.00    -0.348 OA
BRANCH 119 120
HETATM  120  C   UNL     1      30.783  69.528  28.695  1.00  0.00     0.186 C 
HETATM  121  C   UNL     1      31.611  68.524  29.536  1.00  0.00     0.179 C 
HETATM  122  O   UNL     1      32.976  68.933  29.716  1.00  0.00    -0.349 OA
HETATM  123  C   UNL     1      33.187  70.212  30.323  1.00  0.00     0.296 C 
HETATM  124  C   UNL     1      32.199  71.311  29.804  1.00  0.00     0.303 C 
HETATM  125  C   UNL     1      31.518  70.868  28.490  1.00  0.00     0.187 C 
BRANCH 121 126
HETATM  126  C   UNL     1      30.973  68.269  30.918  1.00  0.00     0.198 C 
BRANCH 126 127
HETATM  127  O   UNL     1      31.256  66.954  31.385  1.00  0.00    -0.398 OA
HETATM  128  H   UNL     1      31.628  66.443  30.639  1.00  0.00     0.209 HD
ENDBRANCH 126 127
ENDBRANCH 121 126
BRANCH 123 129
HETATM  129  O   UNL     1      34.539  70.595  30.042  1.00  0.00    -0.348 OA
BRANCH 129 130
HETATM  130  C   UNL     1      35.194  69.861  28.993  1.00  0.00     0.186 C 
HETATM  131  C   UNL     1      36.279  70.729  28.311  1.00  0.00     0.176 C 
HETATM  132  O   UNL     1      37.490  69.986  28.018  1.00  0.00    -0.379 OA
HETATM  133  C   UNL     1      37.250  68.680  27.488  1.00  0.00     0.206 C 
HETATM  134  C   UNL     1      36.567  67.765  28.528  1.00  0.00     0.272 C 
HETATM  135  C   UNL     1      35.857  68.609  29.616  1.00  0.00     0.184 C 
BRANCH 131 136
HETATM  136  C   UNL     1      35.793  71.398  27.017  1.00  0.00     0.198 C 
BRANCH 136 137
HETATM  137  O   UNL     1      34.812  72.389  27.320  1.00  0.00    -0.398 OA
HETATM  138  H   UNL     1      34.227  72.445  26.539  1.00  0.00     0.209 HD
ENDBRANCH 136 137
ENDBRANCH 131 136
BRANCH 134 139
HETATM  139  N   UNL     1      37.498  66.804  29.155  1.00  0.00     0.087 N 
HETATM  140  H   UNL     1      37.341  66.838  30.171  1.00  0.00     0.313 HD
HETATM  141  H   UNL     1      38.467  67.092  29.031  1.00  0.00     0.313 HD
ENDBRANCH 134 139
BRANCH 135 142
HETATM  142  O   UNL     1      36.815  68.972  30.633  1.00  0.00    -0.391 OA
HETATM  143  H   UNL     1      36.513  69.817  31.019  1.00  0.00     0.210 HD
ENDBRANCH 135 142
ENDBRANCH 129 130
ENDBRANCH 123 129
BRANCH 124 144
HETATM  144  N   UNL     1      32.825  72.649  29.690  1.00  0.00     0.090 N 
HETATM  145  H   UNL     1      32.163  73.296  29.261  1.00  0.00     0.313 HD
HETATM  146  H   UNL     1      33.549  72.544  28.965  1.00  0.00     0.313 HD
ENDBRANCH 124 144
BRANCH 125 147
HETATM  147  O   UNL     1      32.450  70.817  27.409  1.00  0.00    -0.391 OA
HETATM  148  H   UNL     1      33.081  70.099  27.613  1.00  0.00     0.210 HD
ENDBRANCH 125 147
ENDBRANCH 119 120
ENDBRANCH   5 119
TORSDOF 58
ENDMDL
MODEL 6
REMARK VINA RESULT:      -6.7      4.710     11.424
REMARK WARNING: 32 MAX_TORS EXCEEDED!!!
REMARK  58 active torsions:
REMARK  status: ('A' for Active; 'I' for Inactive)
REMARK    1  A    between atoms: C_1  and  O_30 
REMARK    2  A    between atoms: C_2  and  C_6 
REMARK    3  A    between atoms: C_3  and  O_9 
REMARK    4  A    between atoms: C_4  and  N_11 
REMARK    5  A    between atoms: C_5  and  O_12 
REMARK    6  A    between atoms: C_6  and  O_7 
REMARK    7  A    between atoms: N_11  and  C_118 
REMARK    8  A    between atoms: O_12  and  C_20 
REMARK    9  A    between atoms: O_14  and  C_18 
REMARK   10  A    between atoms: C_16  and  C_23 
REMARK   11  A    between atoms: O_17  and  C_23 
REMARK   12  A    between atoms: O_19  and  C_22 
REMARK   13  A    between atoms: O_19  and  C_42 
REMARK   14  A    between atoms: N_21  and  C_24 
REMARK   15  A    between atoms: O_26  and  C_29 
REMARK   16  A    between atoms: C_28  and  C_34 
REMARK   17  A    between atoms: O_30  and  C_33 
REMARK   18  A    between atoms: C_31  and  O_53 
REMARK   19  A    between atoms: N_32  and  C_35 
REMARK   20  A    between atoms: C_34  and  O_65 
REMARK   21  A    between atoms: O_37  and  C_41 
REMARK   22  A    between atoms: C_39  and  C_45 
REMARK   23  A    between atoms: O_40  and  C_45 
REMARK   24  A    between atoms: N_43  and  C_46 
REMARK   25  A    between atoms: O_48  and  C_52 
REMARK   26  A    between atoms: C_50  and  C_57 
REMARK   27  A    between atoms: O_51  and  C_57 
REMARK   28  A    between atoms: O_53  and  C_56 
REMARK   29  A    between atoms: N_55  and  C_58 
REMARK   30  A    between atoms: N_55  and  C_71 
REMARK   31  A    between atoms: C_71  and  C_73 
REMARK   32  A    between atoms: C_73  and  C_74 
REMARK   33  A    between atoms: C_73  and  N_87 
REMARK   34  A    between atoms: C_74  and  C_75 
REMARK   35  A    between atoms: C_75  and  C_76 
REMARK   36  A    between atoms: C_75  and  N_101 
REMARK   37  A    between atoms: C_76  and  C_77 
REMARK   38  A    between atoms: C_77  and  C_78 
REMARK   39  A    between atoms: C_77  and  N_91 
REMARK   40  A    between atoms: C_78  and  C_79 
REMARK   41  A    between atoms: C_79  and  C_80 
REMARK   42  A    between atoms: C_79  and  N_106 
REMARK   43  A    between atoms: C_80  and  C_81 
REMARK   44  A    between atoms: C_81  and  N_96 
REMARK   45  A    between atoms: N_113  and  C_119 
REMARK   46  A    between atoms: C_118  and  C_119 
REMARK   47  A    between atoms: C_119  and  C_126 
REMARK   48  A    between atoms: N_122  and  C_128 
REMARK   49  A    between atoms: C_124  and  C_128 
REMARK   50  A    between atoms: C_124  and  C_130 
REMARK   51  A    between atoms: N_125  and  C_135 
REMARK   52  A    between atoms: C_126  and  C_130 
REMARK   53  A    between atoms: C_128  and  C_132 
REMARK   54  A    between atoms: N_129  and  C_130 
REMARK   55  A    between atoms: C_132  and  C_137 
REMARK   56  A    between atoms: C_135  and  C_136 
REMARK   57  A    between atoms: C_136  and  C_137 
REMARK   58  A    between atoms: C_137  and  N_140 
ROOT
HETATM    1  C   UNL     1      27.152  69.153  27.626  1.00  0.00     0.186 C 
HETATM    2  C   UNL     1      27.643  69.642  26.210  1.00  0.00     0.179 C 
HETATM    3  C   UNL     1      28.261  69.079  28.724  1.00  0.00     0.188 C 
HETATM    4  C   UNL     1      29.406  70.111  28.511  1.00  0.00     0.306 C 
HETATM    5  C   UNL     1      29.867  69.718  27.070  1.00  0.00     0.296 C 
HETATM    6  O   UNL     1      28.949  70.278  26.153  1.00  0.00    -0.349 OA
ENDROOT
BRANCH   1   7
HETATM    7  O   UNL     1      26.061  69.982  28.069  1.00  0.00    -0.348 OA
BRANCH   7   8
HETATM    8  C   UNL     1      24.819  69.279  28.269  1.00  0.00     0.296 C 
HETATM    9  O   UNL     1      25.066  67.899  27.983  1.00  0.00    -0.349 OA
HETATM   10  C   UNL     1      23.915  67.031  28.063  1.00  0.00     0.179 C 
HETATM   11  C   UNL     1      22.704  67.587  27.281  1.00  0.00     0.186 C 
HETATM   12  C   UNL     1      23.124  68.792  26.423  1.00  0.00     0.187 C 
HETATM   13  C   UNL     1      23.708  69.878  27.340  1.00  0.00     0.303 C 
BRANCH  10  14
HETATM   14  C   UNL     1      23.559  66.732  29.532  1.00  0.00     0.198 C 
BRANCH  14  15
HETATM   15  O   UNL     1      23.437  65.332  29.773  1.00  0.00    -0.398 OA
HETATM   16  H   UNL     1      22.747  64.990  29.175  1.00  0.00     0.209 HD
ENDBRANCH  14  15
ENDBRANCH  10  14
BRANCH  11  17
HETATM   17  O   UNL     1      22.133  66.618  26.398  1.00  0.00    -0.348 OA
BRANCH  17  18
HETATM   18  C   UNL     1      21.365  65.599  27.027  1.00  0.00     0.296 C 
HETATM   19  O   UNL     1      22.145  64.412  27.123  1.00  0.00    -0.351 OA
HETATM   20  C   UNL     1      21.457  63.168  26.917  1.00  0.00     0.150 C 
HETATM   21  C   UNL     1      20.061  63.189  27.535  1.00  0.00     0.068 C 
HETATM   22  C   UNL     1      19.210  64.360  27.027  1.00  0.00     0.158 C 
HETATM   23  C   UNL     1      20.010  65.457  26.276  1.00  0.00     0.303 C 
BRANCH  20  24
HETATM   24  C   UNL     1      22.308  62.031  27.509  1.00  0.00     0.196 C 
BRANCH  24  25
HETATM   25  O   UNL     1      22.832  61.223  26.457  1.00  0.00    -0.398 OA
HETATM   26  H   UNL     1      22.176  61.219  25.739  1.00  0.00     0.209 HD
ENDBRANCH  24  25
ENDBRANCH  20  24
BRANCH  22  27
HETATM   27  O   UNL     1      18.163  63.857  26.188  1.00  0.00    -0.393 OA
HETATM   28  H   UNL     1      17.491  64.572  26.168  1.00  0.00     0.210 HD
ENDBRANCH  22  27
BRANCH  23  29
HETATM   29  N   UNL     1      20.043  65.100  24.828  1.00  0.00     0.097 N 
HETATM   30  H   UNL     1      20.929  65.459  24.460  1.00  0.00     0.316 HD
BRANCH  29  31
HETATM   31  C   UNL     1      19.018  65.719  23.969  1.00  0.00     0.296 C 
BRANCH  31  32
HETATM   32  C   UNL     1      19.407  67.097  23.291  1.00  0.00     0.120 C 
BRANCH  32  33
HETATM   33  C   UNL     1      20.831  66.972  22.640  1.00  0.00     0.053 C 
BRANCH  33  34
HETATM   34  C   UNL     1      21.004  66.658  21.100  1.00  0.00     0.094 C 
BRANCH  34  35
HETATM   35  C   UNL     1      19.547  66.466  20.462  1.00  0.00     0.051 C 
BRANCH  35  36
HETATM   36  C   UNL     1      18.867  67.495  19.494  1.00  0.00     0.094 C 
BRANCH  36  37
HETATM   37  C   UNL     1      17.562  66.953  18.809  1.00  0.00     0.051 C 
BRANCH  37  38
HETATM   38  C   UNL     1      17.770  66.198  17.460  1.00  0.00     0.094 C 
BRANCH  38  39
HETATM   39  C   UNL     1      16.414  65.872  16.738  1.00  0.00     0.051 C 
BRANCH  39  40
HETATM   40  C   UNL     1      16.353  65.175  15.350  1.00  0.00     0.089 C 
HETATM   41  C   UNL     1      15.137  64.231  15.307  1.00  0.00     0.033 C 
BRANCH  40  42
HETATM   42  N   UNL     1      16.290  66.048  14.188  1.00  0.00    -0.334 N 
HETATM   43  C   UNL     1      15.666  67.268  14.153  1.00  0.00     0.210 A 
HETATM   44  N   UNL     1      15.791  67.839  12.978  1.00  0.00    -0.254 NA
HETATM   45  C   UNL     1      16.535  66.963  12.231  1.00  0.00     0.150 A 
HETATM   46  C   UNL     1      16.874  65.850  12.968  1.00  0.00     0.082 A 
ENDBRANCH  40  42
ENDBRANCH  39  40
ENDBRANCH  38  39
BRANCH  38  47
HETATM   47  N   UNL     1      18.856  66.673  16.615  1.00  0.00    -0.339 N 
HETATM   48  C   UNL     1      18.892  67.857  15.930  1.00  0.00     0.209 C 
HETATM   49  N   UNL     1      19.918  67.919  15.115  1.00  0.00    -0.254 NA
HETATM   50  C   UNL     1      20.668  66.820  15.397  1.00  0.00     0.142 C 
HETATM   51  C   UNL     1      20.075  66.055  16.383  1.00  0.00     0.026 C 
HETATM   52  C   UNL     1      20.647  64.881  17.087  1.00  0.00     0.070 C 
ENDBRANCH  38  47
ENDBRANCH  37  38
ENDBRANCH  36  37
BRANCH  36  53
HETATM   53  N   UNL     1      18.509  68.740  20.181  1.00  0.00    -0.345 N 
HETATM   54  C   UNL     1      17.338  69.002  20.836  1.00  0.00     0.209 A 
HETATM   55  N   UNL     1      17.385  70.155  21.463  1.00  0.00    -0.255 NA
HETATM   56  C   UNL     1      18.632  70.656  21.219  1.00  0.00     0.135 A 
HETATM   57  C   UNL     1      19.362  69.779  20.454  1.00  0.00     0.111 A 
ENDBRANCH  36  53
ENDBRANCH  35  36
ENDBRANCH  34  35
BRANCH  34  58
HETATM   58  N   UNL     1      22.065  67.385  20.391  1.00  0.00    -0.339 N 
HETATM   59  C   UNL     1      22.809  66.820  19.376  1.00  0.00     0.209 C 
HETATM   60  N   UNL     1      23.756  67.599  18.920  1.00  0.00    -0.254 NA
HETATM   61  C   UNL     1      23.741  68.668  19.747  1.00  0.00     0.142 C 
HETATM   62  C   UNL     1      22.799  68.515  20.749  1.00  0.00     0.026 C 
HETATM   63  C   UNL     1      22.722  69.371  21.959  1.00  0.00     0.070 C 
ENDBRANCH  34  58
ENDBRANCH  33  34
ENDBRANCH  32  33
BRANCH  32  64
HETATM   64  N   UNL     1      19.153  68.304  24.082  1.00  0.00    -0.344 N 
HETATM   65  C   UNL     1      20.003  69.318  24.441  1.00  0.00     0.111 A 
HETATM   66  C   UNL     1      19.265  70.192  25.201  1.00  0.00     0.135 A 
HETATM   67  N   UNL     1      17.998  69.728  25.361  1.00  0.00    -0.255 NA
HETATM   68  C   UNL     1      17.959  68.602  24.689  1.00  0.00     0.209 A 
ENDBRANCH  32  64
ENDBRANCH  31  32
ENDBRANCH  29  31
ENDBRANCH  23  29
ENDBRANCH  17  18
ENDBRANCH  11  17
BRANCH  12  69
HETATM   69  O   UNL     1      24.068  68.423  25.404  1.00  0.00    -0.391 OA
HETATM   70  H   UNL     1      24.725  69.145  25.338  1.00  0.00     0.210 HD
ENDBRANCH  12  69
BRANCH  13  71
HETATM   71  N   UNL     1      24.134  71.038  26.531  1.00  0.00     0.090 N 
HETATM   72  H   UNL     1      23.479  71.790  26.766  1.00  0.00     0.313 HD
HETATM   73  H   UNL     1      23.883  70.800  25.562  1.00  0.00     0.313 HD
ENDBRANCH  13  71
ENDBRANCH   7   8
ENDBRANCH   1   7
BRANCH   2  74
HETATM   74  C   UNL     1      27.611  68.455  25.214  1.00  0.00     0.198 C 
BRANCH  74  75
HETATM   75  O   UNL     1      26.725  68.719  24.134  1.00  0.00    -0.398 OA
HETATM   76  H   UNL     1      26.993  68.164  23.381  1.00  0.00     0.209 HD
ENDBRANCH  74  75
ENDBRANCH   2  74
BRANCH   3  77
HETATM   77  O   UNL     1      27.721  69.112  30.049  1.00  0.00    -0.391 OA
HETATM   78  H   UNL     1      26.941  68.532  30.078  1.00  0.00     0.210 HD
ENDBRANCH   3  77
BRANCH   4  79
HETATM   79  N   UNL     1      28.875  71.460  28.882  1.00  0.00     0.097 N 
HETATM   80  H   UNL     1      27.864  71.416  28.961  1.00  0.00     0.316 HD
BRANCH  79  81
HETATM   81  C   UNL     1      29.477  72.194  30.008  1.00  0.00     0.296 C 
BRANCH  81  82
HETATM   82  C   UNL     1      29.116  71.660  31.495  1.00  0.00     0.120 C 
BRANCH  82  83
HETATM   83  N   UNL     1      30.086  70.700  32.018  1.00  0.00    -0.344 N 
HETATM   84  C   UNL     1      29.870  69.656  32.881  1.00  0.00     0.111 A 
HETATM   85  C   UNL     1      31.104  69.084  33.091  1.00  0.00     0.135 A 
HETATM   86  N   UNL     1      32.072  69.772  32.415  1.00  0.00    -0.255 NA
HETATM   87  C   UNL     1      31.440  70.751  31.811  1.00  0.00     0.209 A 
ENDBRANCH  82  83
BRANCH  82  88
HETATM   88  C   UNL     1      28.735  72.854  32.447  1.00  0.00     0.053 C 
BRANCH  88  89
HETATM   89  C   UNL     1      27.459  73.793  32.319  1.00  0.00     0.094 C 
BRANCH  89  90
HETATM   90  C   UNL     1      27.713  75.366  32.450  1.00  0.00     0.051 C 
BRANCH  90  91
HETATM   91  C   UNL     1      26.515  76.342  32.865  1.00  0.00     0.094 C 
BRANCH  91  92
HETATM   92  N   UNL     1      25.549  75.701  33.766  1.00  0.00    -0.345 N 
HETATM   93  C   UNL     1      24.260  75.348  33.465  1.00  0.00     0.111 A 
HETATM   94  C   UNL     1      23.682  75.026  34.671  1.00  0.00     0.135 A 
HETATM   95  N   UNL     1      24.574  75.193  35.692  1.00  0.00    -0.255 NA
HETATM   96  C   UNL     1      25.691  75.585  35.123  1.00  0.00     0.209 A 
ENDBRANCH  91  92
BRANCH  91  97
HETATM   97  C   UNL     1      25.694  76.961  31.668  1.00  0.00     0.051 C 
BRANCH  97  98
HETATM   98  C   UNL     1      25.267  78.479  31.774  1.00  0.00     0.094 C 
BRANCH  98  99
HETATM   99  C   UNL     1      25.510  79.236  30.397  1.00  0.00     0.051 C 
BRANCH  99 100
HETATM  100  C   UNL     1      25.646  80.788  30.283  1.00  0.00     0.089 C 
HETATM  101  C   UNL     1      27.079  81.160  29.855  1.00  0.00     0.033 C 
BRANCH 100 102
HETATM  102  N   UNL     1      24.729  81.441  29.357  1.00  0.00    -0.334 N 
HETATM  103  C   UNL     1      23.475  81.023  29.001  1.00  0.00     0.082 A 
HETATM  104  C   UNL     1      23.028  81.972  28.110  1.00  0.00     0.150 A 
HETATM  105  N   UNL     1      23.986  82.927  27.885  1.00  0.00    -0.254 NA
HETATM  106  C   UNL     1      24.997  82.586  28.652  1.00  0.00     0.210 A 
ENDBRANCH 100 102
ENDBRANCH  99 100
ENDBRANCH  98  99
BRANCH  98 107
HETATM  107  N   UNL     1      24.045  78.829  32.486  1.00  0.00    -0.339 N 
HETATM  108  C   UNL     1      22.776  78.861  31.977  1.00  0.00     0.209 C 
HETATM  109  N   UNL     1      22.025  79.733  32.612  1.00  0.00    -0.254 NA
HETATM  110  C   UNL     1      22.733  80.068  33.723  1.00  0.00     0.142 C 
HETATM  111  C   UNL     1      23.943  79.403  33.742  1.00  0.00     0.026 C 
HETATM  112  C   UNL     1      24.861  79.234  34.887  1.00  0.00     0.070 C 
ENDBRANCH  98 107
ENDBRANCH  97  98
ENDBRANCH  91  97
ENDBRANCH  90  91
ENDBRANCH  89  90
BRANCH  89 113
HETATM  113  N   UNL     1      26.346  73.329  31.472  1.00  0.00    -0.339 N 
HETATM  114  C   UNL     1      25.969  73.529  30.157  1.00  0.00     0.026 C 
HETATM  115  C   UNL     1      24.843  72.741  29.974  1.00  0.00     0.142 C 
HETATM  116  C   UNL     1      26.585  74.329  29.082  1.00  0.00     0.070 C 
HETATM  117  N   UNL     1      24.631  71.927  31.036  1.00  0.00    -0.254 NA
HETATM  118  C   UNL     1      25.582  72.240  31.863  1.00  0.00     0.209 C 
ENDBRANCH  89 113
ENDBRANCH  88  89
ENDBRANCH  82  88
ENDBRANCH  81  82
ENDBRANCH  79  81
ENDBRANCH   4  79
BRANCH   5 119
HETATM  119  O   UNL     1      31.249  70.016  26.818  1.00  0.00    -0.348 OA
BRANCH 119 120
HETATM  120  C   UNL     1      32.045  70.079  28.043  1.00  0.00     0.186 C 
HETATM  121  C   UNL     1      33.050  68.905  28.153  1.00  0.00     0.179 C 
HETATM  122  O   UNL     1      34.418  69.323  28.017  1.00  0.00    -0.349 OA
HETATM  123  C   UNL     1      34.879  70.315  28.940  1.00  0.00     0.296 C 
HETATM  124  C   UNL     1      33.833  71.451  29.198  1.00  0.00     0.303 C 
HETATM  125  C   UNL     1      32.739  71.454  28.107  1.00  0.00     0.187 C 
BRANCH 121 126
HETATM  126  C   UNL     1      32.887  68.131  29.477  1.00  0.00     0.198 C 
BRANCH 126 127
HETATM  127  O   UNL     1      31.517  67.860  29.754  1.00  0.00    -0.398 OA
HETATM  128  H   UNL     1      30.986  68.194  29.004  1.00  0.00     0.209 HD
ENDBRANCH 126 127
ENDBRANCH 121 126
BRANCH 123 129
HETATM  129  O   UNL     1      36.083  70.870  28.395  1.00  0.00    -0.348 OA
BRANCH 129 130
HETATM  130  C   UNL     1      37.303  70.497  29.057  1.00  0.00     0.186 C 
HETATM  131  C   UNL     1      37.004  69.817  30.416  1.00  0.00     0.176 C 
HETATM  132  O   UNL     1      37.863  68.677  30.674  1.00  0.00    -0.379 OA
HETATM  133  C   UNL     1      39.231  68.897  30.326  1.00  0.00     0.206 C 
HETATM  134  C   UNL     1      39.405  69.078  28.802  1.00  0.00     0.272 C 
HETATM  135  C   UNL     1      38.067  69.506  28.148  1.00  0.00     0.184 C 
BRANCH 131 136
HETATM  136  C   UNL     1      37.100  70.780  31.607  1.00  0.00     0.198 C 
BRANCH 136 137
HETATM  137  O   UNL     1      36.849  72.117  31.175  1.00  0.00    -0.398 OA
HETATM  138  H   UNL     1      36.039  72.082  30.628  1.00  0.00     0.209 HD
ENDBRANCH 136 137
ENDBRANCH 131 136
BRANCH 134 139
HETATM  139  N   UNL     1      39.939  67.874  28.132  1.00  0.00     0.087 N 
HETATM  140  H   UNL     1      40.441  68.186  27.290  1.00  0.00     0.313 HD
HETATM  141  H   UNL     1      39.187  67.281  27.783  1.00  0.00     0.313 HD
ENDBRANCH 134 139
BRANCH 135 142
HETATM  142  O   UNL     1      37.278  68.329  27.871  1.00  0.00    -0.391 OA
HETATM  143  H   UNL     1      36.857  68.065  28.712  1.00  0.00     0.210 HD
ENDBRANCH 135 142
ENDBRANCH 129 130
ENDBRANCH 123 129
BRANCH 124 144
HETATM  144  N   UNL     1      34.453  72.784  29.377  1.00  0.00     0.090 N 
HETATM  145  H   UNL     1      34.690  73.172  28.463  1.00  0.00     0.313 HD
HETATM  146  H   UNL     1      35.376  72.595  29.794  1.00  0.00     0.313 HD
ENDBRANCH 124 144
BRANCH 125 147
HETATM  147  O   UNL     1      33.263  71.859  26.842  1.00  0.00    -0.391 OA
HETATM  148  H   UNL     1      34.152  71.460  26.763  1.00  0.00     0.210 HD
ENDBRANCH 125 147
ENDBRANCH 119 120
ENDBRANCH   5 119
TORSDOF 58
ENDMDL
MODEL 7
REMARK VINA RESULT:      -6.7      3.985     17.404
REMARK WARNING: 32 MAX_TORS EXCEEDED!!!
REMARK  58 active torsions:
REMARK  status: ('A' for Active; 'I' for Inactive)
REMARK    1  A    between atoms: C_1  and  O_30 
REMARK    2  A    between atoms: C_2  and  C_6 
REMARK    3  A    between atoms: C_3  and  O_9 
REMARK    4  A    between atoms: C_4  and  N_11 
REMARK    5  A    between atoms: C_5  and  O_12 
REMARK    6  A    between atoms: C_6  and  O_7 
REMARK    7  A    between atoms: N_11  and  C_118 
REMARK    8  A    between atoms: O_12  and  C_20 
REMARK    9  A    between atoms: O_14  and  C_18 
REMARK   10  A    between atoms: C_16  and  C_23 
REMARK   11  A    between atoms: O_17  and  C_23 
REMARK   12  A    between atoms: O_19  and  C_22 
REMARK   13  A    between atoms: O_19  and  C_42 
REMARK   14  A    between atoms: N_21  and  C_24 
REMARK   15  A    between atoms: O_26  and  C_29 
REMARK   16  A    between atoms: C_28  and  C_34 
REMARK   17  A    between atoms: O_30  and  C_33 
REMARK   18  A    between atoms: C_31  and  O_53 
REMARK   19  A    between atoms: N_32  and  C_35 
REMARK   20  A    between atoms: C_34  and  O_65 
REMARK   21  A    between atoms: O_37  and  C_41 
REMARK   22  A    between atoms: C_39  and  C_45 
REMARK   23  A    between atoms: O_40  and  C_45 
REMARK   24  A    between atoms: N_43  and  C_46 
REMARK   25  A    between atoms: O_48  and  C_52 
REMARK   26  A    between atoms: C_50  and  C_57 
REMARK   27  A    between atoms: O_51  and  C_57 
REMARK   28  A    between atoms: O_53  and  C_56 
REMARK   29  A    between atoms: N_55  and  C_58 
REMARK   30  A    between atoms: N_55  and  C_71 
REMARK   31  A    between atoms: C_71  and  C_73 
REMARK   32  A    between atoms: C_73  and  C_74 
REMARK   33  A    between atoms: C_73  and  N_87 
REMARK   34  A    between atoms: C_74  and  C_75 
REMARK   35  A    between atoms: C_75  and  C_76 
REMARK   36  A    between atoms: C_75  and  N_101 
REMARK   37  A    between atoms: C_76  and  C_77 
REMARK   38  A    between atoms: C_77  and  C_78 
REMARK   39  A    between atoms: C_77  and  N_91 
REMARK   40  A    between atoms: C_78  and  C_79 
REMARK   41  A    between atoms: C_79  and  C_80 
REMARK   42  A    between atoms: C_79  and  N_106 
REMARK   43  A    between atoms: C_80  and  C_81 
REMARK   44  A    between atoms: C_81  and  N_96 
REMARK   45  A    between atoms: N_113  and  C_119 
REMARK   46  A    between atoms: C_118  and  C_119 
REMARK   47  A    between atoms: C_119  and  C_126 
REMARK   48  A    between atoms: N_122  and  C_128 
REMARK   49  A    between atoms: C_124  and  C_128 
REMARK   50  A    between atoms: C_124  and  C_130 
REMARK   51  A    between atoms: N_125  and  C_135 
REMARK   52  A    between atoms: C_126  and  C_130 
REMARK   53  A    between atoms: C_128  and  C_132 
REMARK   54  A    between atoms: N_129  and  C_130 
REMARK   55  A    between atoms: C_132  and  C_137 
REMARK   56  A    between atoms: C_135  and  C_136 
REMARK   57  A    between atoms: C_136  and  C_137 
REMARK   58  A    between atoms: C_137  and  N_140 
ROOT
HETATM    1  C   UNL     1      25.740  70.865  26.858  1.00  0.00     0.186 C 
HETATM    2  C   UNL     1      25.469  69.377  26.410  1.00  0.00     0.179 C 
HETATM    3  C   UNL     1      24.507  71.819  26.769  1.00  0.00     0.188 C 
HETATM    4  C   UNL     1      23.147  71.087  26.963  1.00  0.00     0.306 C 
HETATM    5  C   UNL     1      23.245  70.016  25.829  1.00  0.00     0.296 C 
HETATM    6  O   UNL     1      24.078  68.972  26.289  1.00  0.00    -0.349 OA
ENDROOT
BRANCH   1   7
HETATM    7  O   UNL     1      26.285  70.872  28.191  1.00  0.00    -0.348 OA
BRANCH   7   8
HETATM    8  C   UNL     1      27.638  71.363  28.280  1.00  0.00     0.296 C 
HETATM    9  O   UNL     1      28.502  70.278  27.931  1.00  0.00    -0.349 OA
HETATM   10  C   UNL     1      29.916  70.553  28.026  1.00  0.00     0.179 C 
HETATM   11  C   UNL     1      30.300  71.201  29.375  1.00  0.00     0.186 C 
HETATM   12  C   UNL     1      29.114  71.152  30.352  1.00  0.00     0.187 C 
HETATM   13  C   UNL     1      27.922  71.893  29.728  1.00  0.00     0.303 C 
BRANCH  10  14
HETATM   14  C   UNL     1      30.387  71.401  26.829  1.00  0.00     0.198 C 
BRANCH  14  15
HETATM   15  O   UNL     1      31.703  71.045  26.412  1.00  0.00    -0.398 OA
HETATM   16  H   UNL     1      32.330  71.442  27.046  1.00  0.00     0.209 HD
ENDBRANCH  14  15
ENDBRANCH  10  14
BRANCH  11  17
HETATM   17  O   UNL     1      31.397  70.537  30.007  1.00  0.00    -0.348 OA
BRANCH  17  18
HETATM   18  C   UNL     1      32.625  71.256  30.009  1.00  0.00     0.296 C 
HETATM   19  O   UNL     1      33.208  71.197  28.712  1.00  0.00    -0.351 OA
HETATM   20  C   UNL     1      34.637  71.074  28.651  1.00  0.00     0.150 C 
HETATM   21  C   UNL     1      35.320  71.907  29.733  1.00  0.00     0.068 C 
HETATM   22  C   UNL     1      34.815  71.569  31.142  1.00  0.00     0.158 C 
HETATM   23  C   UNL     1      33.513  70.727  31.172  1.00  0.00     0.303 C 
BRANCH  20  24
HETATM   24  C   UNL     1      35.108  71.495  27.248  1.00  0.00     0.196 C 
BRANCH  24  25
HETATM   25  O   UNL     1      34.320  72.590  26.783  1.00  0.00    -0.398 OA
HETATM   26  H   UNL     1      34.932  73.264  26.441  1.00  0.00     0.209 HD
ENDBRANCH  24  25
ENDBRANCH  20  24
BRANCH  22  27
HETATM   27  O   UNL     1      35.851  70.897  31.869  1.00  0.00    -0.393 OA
HETATM   28  H   UNL     1      36.683  71.148  31.413  1.00  0.00     0.210 HD
ENDBRANCH  22  27
BRANCH  23  29
HETATM   29  N   UNL     1      33.891  69.284  31.168  1.00  0.00     0.097 N 
HETATM   30  H   UNL     1      33.253  68.818  30.516  1.00  0.00     0.316 HD
BRANCH  29  31
HETATM   31  C   UNL     1      33.716  68.549  32.433  1.00  0.00     0.296 C 
BRANCH  31  32
HETATM   32  C   UNL     1      33.285  67.030  32.310  1.00  0.00     0.120 C 
BRANCH  32  33
HETATM   33  C   UNL     1      34.238  66.298  31.300  1.00  0.00     0.053 C 
BRANCH  33  34
HETATM   34  C   UNL     1      35.305  65.242  31.797  1.00  0.00     0.094 C 
BRANCH  34  35
HETATM   35  C   UNL     1      36.711  65.593  31.112  1.00  0.00     0.051 C 
BRANCH  35  36
HETATM   36  C   UNL     1      37.365  67.018  31.127  1.00  0.00     0.094 C 
BRANCH  36  37
HETATM   37  C   UNL     1      38.781  67.057  31.804  1.00  0.00     0.051 C 
BRANCH  37  38
HETATM   38  C   UNL     1      39.964  66.544  30.926  1.00  0.00     0.094 C 
BRANCH  38  39
HETATM   39  C   UNL     1      41.192  67.524  30.938  1.00  0.00     0.051 C 
BRANCH  39  40
HETATM   40  C   UNL     1      41.043  69.046  31.211  1.00  0.00     0.089 C 
HETATM   41  C   UNL     1      42.242  69.535  32.043  1.00  0.00     0.033 C 
BRANCH  40  42
HETATM   42  N   UNL     1      40.922  69.906  30.043  1.00  0.00    -0.334 N 
HETATM   43  C   UNL     1      40.489  71.206  30.064  1.00  0.00     0.210 A 
HETATM   44  N   UNL     1      40.504  71.738  28.865  1.00  0.00    -0.254 NA
HETATM   45  C   UNL     1      40.977  70.750  28.041  1.00  0.00     0.150 A 
HETATM   46  C   UNL     1      41.262  69.607  28.753  1.00  0.00     0.082 A 
ENDBRANCH  40  42
ENDBRANCH  39  40
ENDBRANCH  38  39
BRANCH  38  47
HETATM   47  N   UNL     1      40.268  65.123  31.018  1.00  0.00    -0.339 N 
HETATM   48  C   UNL     1      40.261  64.364  32.157  1.00  0.00     0.209 C 
HETATM   49  N   UNL     1      40.752  63.167  31.950  1.00  0.00    -0.254 NA
HETATM   50  C   UNL     1      40.929  63.079  30.603  1.00  0.00     0.142 C 
HETATM   51  C   UNL     1      40.567  64.256  29.978  1.00  0.00     0.026 C 
HETATM   52  C   UNL     1      40.451  64.511  28.521  1.00  0.00     0.070 C 
ENDBRANCH  38  47
ENDBRANCH  37  38
ENDBRANCH  36  37
BRANCH  36  53
HETATM   53  N   UNL     1      37.517  67.566  29.775  1.00  0.00    -0.345 N 
HETATM   54  C   UNL     1      37.390  66.879  28.600  1.00  0.00     0.209 A 
HETATM   55  N   UNL     1      37.447  67.685  27.564  1.00  0.00    -0.255 NA
HETATM   56  C   UNL     1      37.604  68.939  28.081  1.00  0.00     0.135 A 
HETATM   57  C   UNL     1      37.615  68.895  29.454  1.00  0.00     0.111 A 
ENDBRANCH  36  53
ENDBRANCH  35  36
ENDBRANCH  34  35
BRANCH  34  58
HETATM   58  N   UNL     1      35.216  64.820  33.201  1.00  0.00    -0.339 N 
HETATM   59  C   UNL     1      35.880  65.469  34.220  1.00  0.00     0.209 C 
HETATM   60  N   UNL     1      35.737  64.900  35.389  1.00  0.00    -0.254 NA
HETATM   61  C   UNL     1      35.071  63.753  35.127  1.00  0.00     0.142 C 
HETATM   62  C   UNL     1      34.847  63.602  33.770  1.00  0.00     0.026 C 
HETATM   63  C   UNL     1      34.391  62.340  33.135  1.00  0.00     0.070 C 
ENDBRANCH  34  58
ENDBRANCH  33  34
ENDBRANCH  32  33
BRANCH  32  64
HETATM   64  N   UNL     1      31.850  66.774  32.158  1.00  0.00    -0.344 N 
HETATM   65  C   UNL     1      31.019  65.954  32.876  1.00  0.00     0.111 A 
HETATM   66  C   UNL     1      29.775  66.065  32.306  1.00  0.00     0.135 A 
HETATM   67  N   UNL     1      29.819  66.894  31.230  1.00  0.00    -0.255 NA
HETATM   68  C   UNL     1      31.065  67.299  31.161  1.00  0.00     0.209 A 
ENDBRANCH  32  64
ENDBRANCH  31  32
ENDBRANCH  29  31
ENDBRANCH  23  29
ENDBRANCH  17  18
ENDBRANCH  11  17
BRANCH  12  69
HETATM   69  O   UNL     1      28.755  69.803  30.694  1.00  0.00    -0.391 OA
HETATM   70  H   UNL     1      29.388  69.208  30.245  1.00  0.00     0.210 HD
ENDBRANCH  12  69
BRANCH  13  71
HETATM   71  N   UNL     1      26.766  71.841  30.646  1.00  0.00     0.090 N 
HETATM   72  H   UNL     1      27.159  71.950  31.586  1.00  0.00     0.313 HD
HETATM   73  H   UNL     1      26.453  70.861  30.632  1.00  0.00     0.313 HD
ENDBRANCH  13  71
ENDBRANCH   7   8
ENDBRANCH   1   7
BRANCH   2  74
HETATM   74  C   UNL     1      26.198  69.102  25.070  1.00  0.00     0.198 C 
BRANCH  74  75
HETATM   75  O   UNL     1      27.522  69.620  25.094  1.00  0.00    -0.398 OA
HETATM   76  H   UNL     1      27.856  69.637  24.180  1.00  0.00     0.209 HD
ENDBRANCH  74  75
ENDBRANCH   2  74
BRANCH   3  77
HETATM   77  O   UNL     1      24.644  72.970  27.609  1.00  0.00    -0.391 OA
HETATM   78  H   UNL     1      24.318  73.746  27.122  1.00  0.00     0.210 HD
ENDBRANCH   3  77
BRANCH   4  79
HETATM   79  N   UNL     1      23.015  70.757  28.417  1.00  0.00     0.097 N 
HETATM   80  H   UNL     1      23.558  71.417  28.965  1.00  0.00     0.316 HD
BRANCH  79  81
HETATM   81  C   UNL     1      21.676  70.542  28.995  1.00  0.00     0.296 C 
BRANCH  81  82
HETATM   82  C   UNL     1      21.205  69.002  29.172  1.00  0.00     0.120 C 
BRANCH  82  83
HETATM   83  N   UNL     1      20.090  68.633  28.302  1.00  0.00    -0.344 N 
HETATM   84  C   UNL     1      18.859  69.228  28.196  1.00  0.00     0.111 A 
HETATM   85  C   UNL     1      18.163  68.485  27.269  1.00  0.00     0.135 A 
HETATM   86  N   UNL     1      18.917  67.430  26.838  1.00  0.00    -0.255 NA
HETATM   87  C   UNL     1      20.049  67.525  27.496  1.00  0.00     0.209 A 
ENDBRANCH  82  83
BRANCH  82  88
HETATM   88  C   UNL     1      22.441  68.029  29.169  1.00  0.00     0.053 C 
BRANCH  88  89
HETATM   89  C   UNL     1      22.982  67.187  30.404  1.00  0.00     0.094 C 
BRANCH  89  90
HETATM   90  C   UNL     1      22.771  65.603  30.337  1.00  0.00     0.051 C 
BRANCH  90  91
HETATM   91  C   UNL     1      23.500  64.743  29.202  1.00  0.00     0.094 C 
BRANCH  91  92
HETATM   92  N   UNL     1      24.828  65.266  28.861  1.00  0.00    -0.345 N 
HETATM   93  C   UNL     1      25.205  65.823  27.668  1.00  0.00     0.111 A 
HETATM   94  C   UNL     1      26.576  65.924  27.731  1.00  0.00     0.135 A 
HETATM   95  N   UNL     1      27.039  65.428  28.917  1.00  0.00    -0.255 NA
HETATM   96  C   UNL     1      25.972  65.051  29.582  1.00  0.00     0.209 A 
ENDBRANCH  91  92
BRANCH  91  97
HETATM   97  C   UNL     1      22.702  64.581  27.851  1.00  0.00     0.051 C 
BRANCH  97  98
HETATM   98  C   UNL     1      22.096  63.161  27.516  1.00  0.00     0.094 C 
BRANCH  98  99
HETATM   99  C   UNL     1      22.115  62.218  28.796  1.00  0.00     0.051 C 
BRANCH  99 100
HETATM  100  C   UNL     1      22.254  60.664  28.716  1.00  0.00     0.089 C 
HETATM  101  C   UNL     1      23.281  60.173  29.754  1.00  0.00     0.033 C 
BRANCH 100 102
HETATM  102  N   UNL     1      21.026  59.904  28.921  1.00  0.00    -0.334 N 
HETATM  103  C   UNL     1      20.830  58.869  29.796  1.00  0.00     0.082 A 
HETATM  104  C   UNL     1      19.518  58.495  29.608  1.00  0.00     0.150 A 
HETATM  105  N   UNL     1      18.930  59.242  28.621  1.00  0.00    -0.254 NA
HETATM  106  C   UNL     1      19.857  60.085  28.228  1.00  0.00     0.210 A 
ENDBRANCH 100 102
ENDBRANCH  99 100
ENDBRANCH  98  99
BRANCH  98 107
HETATM  107  N   UNL     1      20.908  63.071  26.677  1.00  0.00    -0.339 N 
HETATM  108  C   UNL     1      20.828  62.546  25.417  1.00  0.00     0.209 C 
HETATM  109  N   UNL     1      19.867  63.110  24.720  1.00  0.00    -0.254 NA
HETATM  110  C   UNL     1      19.136  63.811  25.629  1.00  0.00     0.142 C 
HETATM  111  C   UNL     1      19.684  63.685  26.889  1.00  0.00     0.026 C 
HETATM  112  C   UNL     1      19.053  64.011  28.183  1.00  0.00     0.070 C 
ENDBRANCH  98 107
ENDBRANCH  97  98
ENDBRANCH  91  97
ENDBRANCH  90  91
ENDBRANCH  89  90
BRANCH  89 113
HETATM  113  N   UNL     1      24.151  67.710  31.134  1.00  0.00    -0.339 N 
HETATM  114  C   UNL     1      24.787  67.389  32.319  1.00  0.00     0.026 C 
HETATM  115  C   UNL     1      25.879  68.240  32.392  1.00  0.00     0.142 C 
HETATM  116  C   UNL     1      24.496  66.352  33.326  1.00  0.00     0.070 C 
HETATM  117  N   UNL     1      26.053  68.920  31.233  1.00  0.00    -0.254 NA
HETATM  118  C   UNL     1      25.069  68.521  30.487  1.00  0.00     0.209 C 
ENDBRANCH  89 113
ENDBRANCH  88  89
ENDBRANCH  82  88
ENDBRANCH  81  82
ENDBRANCH  79  81
ENDBRANCH   4  79
BRANCH   5 119
HETATM  119  O   UNL     1      21.964  69.606  25.326  1.00  0.00    -0.348 OA
BRANCH 119 120
HETATM  120  C   UNL     1      21.766  69.971  23.924  1.00  0.00     0.186 C 
HETATM  121  C   UNL     1      22.572  69.065  22.960  1.00  0.00     0.179 C 
HETATM  122  O   UNL     1      21.738  68.197  22.176  1.00  0.00    -0.349 OA
HETATM  123  C   UNL     1      20.738  68.828  21.369  1.00  0.00     0.296 C 
HETATM  124  C   UNL     1      20.014  70.010  22.096  1.00  0.00     0.303 C 
HETATM  125  C   UNL     1      20.254  69.952  23.621  1.00  0.00     0.187 C 
BRANCH 121 126
HETATM  126  C   UNL     1      23.474  69.887  22.017  1.00  0.00     0.198 C 
BRANCH 126 127
HETATM  127  O   UNL     1      24.176  69.046  21.108  1.00  0.00    -0.398 OA
HETATM  128  H   UNL     1      25.132  69.228  21.204  1.00  0.00     0.209 HD
ENDBRANCH 126 127
ENDBRANCH 121 126
BRANCH 123 129
HETATM  129  O   UNL     1      19.788  67.817  21.008  1.00  0.00    -0.348 OA
BRANCH 129 130
HETATM  130  C   UNL     1      19.862  67.340  19.654  1.00  0.00     0.186 C 
HETATM  131  C   UNL     1      20.325  65.863  19.616  1.00  0.00     0.176 C 
HETATM  132  O   UNL     1      19.599  65.073  18.640  1.00  0.00    -0.379 OA
HETATM  133  C   UNL     1      19.398  65.741  17.393  1.00  0.00     0.206 C 
HETATM  134  C   UNL     1      18.472  66.967  17.551  1.00  0.00     0.272 C 
HETATM  135  C   UNL     1      18.453  67.451  19.022  1.00  0.00     0.184 C 
BRANCH 131 136
HETATM  136  C   UNL     1      21.828  65.709  19.347  1.00  0.00     0.198 C 
BRANCH 136 137
HETATM  137  O   UNL     1      22.505  66.928  19.652  1.00  0.00    -0.398 OA
HETATM  138  H   UNL     1      21.844  67.642  19.557  1.00  0.00     0.209 HD
ENDBRANCH 136 137
ENDBRANCH 131 136
BRANCH 134 139
HETATM  139  N   UNL     1      17.093  66.717  17.079  1.00  0.00     0.087 N 
HETATM  140  H   UNL     1      17.157  66.317  16.134  1.00  0.00     0.313 HD
HETATM  141  H   UNL     1      16.580  67.589  16.959  1.00  0.00     0.313 HD
ENDBRANCH 134 139
BRANCH 135 142
HETATM  142  O   UNL     1      17.483  66.680  19.762  1.00  0.00    -0.391 OA
HETATM  143  H   UNL     1      16.954  66.185  19.107  1.00  0.00     0.210 HD
ENDBRANCH 135 142
ENDBRANCH 129 130
ENDBRANCH 123 129
BRANCH 124 144
HETATM  144  N   UNL     1      18.575  70.108  21.757  1.00  0.00     0.090 N 
HETATM  145  H   UNL     1      18.206  69.175  21.575  1.00  0.00     0.313 HD
HETATM  146  H   UNL     1      18.550  70.551  20.827  1.00  0.00     0.313 HD
ENDBRANCH 124 144
BRANCH 125 147
HETATM  147  O   UNL     1      19.595  68.833  24.213  1.00  0.00    -0.391 OA
HETATM  148  H   UNL     1      19.014  69.186  24.916  1.00  0.00     0.210 HD
ENDBRANCH 125 147
ENDBRANCH 119 120
ENDBRANCH   5 119
TORSDOF 58
ENDMDL
MODEL 8
REMARK VINA RESULT:      -6.7      3.258     17.510
REMARK WARNING: 32 MAX_TORS EXCEEDED!!!
REMARK  58 active torsions:
REMARK  status: ('A' for Active; 'I' for Inactive)
REMARK    1  A    between atoms: C_1  and  O_30 
REMARK    2  A    between atoms: C_2  and  C_6 
REMARK    3  A    between atoms: C_3  and  O_9 
REMARK    4  A    between atoms: C_4  and  N_11 
REMARK    5  A    between atoms: C_5  and  O_12 
REMARK    6  A    between atoms: C_6  and  O_7 
REMARK    7  A    between atoms: N_11  and  C_118 
REMARK    8  A    between atoms: O_12  and  C_20 
REMARK    9  A    between atoms: O_14  and  C_18 
REMARK   10  A    between atoms: C_16  and  C_23 
REMARK   11  A    between atoms: O_17  and  C_23 
REMARK   12  A    between atoms: O_19  and  C_22 
REMARK   13  A    between atoms: O_19  and  C_42 
REMARK   14  A    between atoms: N_21  and  C_24 
REMARK   15  A    between atoms: O_26  and  C_29 
REMARK   16  A    between atoms: C_28  and  C_34 
REMARK   17  A    between atoms: O_30  and  C_33 
REMARK   18  A    between atoms: C_31  and  O_53 
REMARK   19  A    between atoms: N_32  and  C_35 
REMARK   20  A    between atoms: C_34  and  O_65 
REMARK   21  A    between atoms: O_37  and  C_41 
REMARK   22  A    between atoms: C_39  and  C_45 
REMARK   23  A    between atoms: O_40  and  C_45 
REMARK   24  A    between atoms: N_43  and  C_46 
REMARK   25  A    between atoms: O_48  and  C_52 
REMARK   26  A    between atoms: C_50  and  C_57 
REMARK   27  A    between atoms: O_51  and  C_57 
REMARK   28  A    between atoms: O_53  and  C_56 
REMARK   29  A    between atoms: N_55  and  C_58 
REMARK   30  A    between atoms: N_55  and  C_71 
REMARK   31  A    between atoms: C_71  and  C_73 
REMARK   32  A    between atoms: C_73  and  C_74 
REMARK   33  A    between atoms: C_73  and  N_87 
REMARK   34  A    between atoms: C_74  and  C_75 
REMARK   35  A    between atoms: C_75  and  C_76 
REMARK   36  A    between atoms: C_75  and  N_101 
REMARK   37  A    between atoms: C_76  and  C_77 
REMARK   38  A    between atoms: C_77  and  C_78 
REMARK   39  A    between atoms: C_77  and  N_91 
REMARK   40  A    between atoms: C_78  and  C_79 
REMARK   41  A    between atoms: C_79  and  C_80 
REMARK   42  A    between atoms: C_79  and  N_106 
REMARK   43  A    between atoms: C_80  and  C_81 
REMARK   44  A    between atoms: C_81  and  N_96 
REMARK   45  A    between atoms: N_113  and  C_119 
REMARK   46  A    between atoms: C_118  and  C_119 
REMARK   47  A    between atoms: C_119  and  C_126 
REMARK   48  A    between atoms: N_122  and  C_128 
REMARK   49  A    between atoms: C_124  and  C_128 
REMARK   50  A    between atoms: C_124  and  C_130 
REMARK   51  A    between atoms: N_125  and  C_135 
REMARK   52  A    between atoms: C_126  and  C_130 
REMARK   53  A    between atoms: C_128  and  C_132 
REMARK   54  A    between atoms: N_129  and  C_130 
REMARK   55  A    between atoms: C_132  and  C_137 
REMARK   56  A    between atoms: C_135  and  C_136 
REMARK   57  A    between atoms: C_136  and  C_137 
REMARK   58  A    between atoms: C_137  and  N_140 
ROOT
HETATM    1  C   UNL     1      21.947  69.745  22.498  1.00  0.00     0.186 C 
HETATM    2  C   UNL     1      22.467  68.685  21.452  1.00  0.00     0.179 C 
HETATM    3  C   UNL     1      20.511  70.297  22.225  1.00  0.00     0.188 C 
HETATM    4  C   UNL     1      19.592  69.280  21.488  1.00  0.00     0.306 C 
HETATM    5  C   UNL     1      20.453  69.002  20.214  1.00  0.00     0.296 C 
HETATM    6  O   UNL     1      21.475  68.093  20.570  1.00  0.00    -0.349 OA
ENDROOT
BRANCH   1   7
HETATM    7  O   UNL     1      22.027  69.191  23.825  1.00  0.00    -0.348 OA
BRANCH   7   8
HETATM    8  C   UNL     1      23.151  69.655  24.599  1.00  0.00     0.296 C 
HETATM    9  O   UNL     1      23.885  68.498  25.010  1.00  0.00    -0.349 OA
HETATM   10  C   UNL     1      25.023  68.753  25.861  1.00  0.00     0.179 C 
HETATM   11  C   UNL     1      24.675  69.681  27.046  1.00  0.00     0.186 C 
HETATM   12  C   UNL     1      23.154  69.885  27.141  1.00  0.00     0.187 C 
HETATM   13  C   UNL     1      22.649  70.493  25.825  1.00  0.00     0.303 C 
BRANCH  10  14
HETATM   14  C   UNL     1      26.208  69.294  25.039  1.00  0.00     0.198 C 
BRANCH  14  15
HETATM   15  O   UNL     1      26.764  68.294  24.189  1.00  0.00    -0.398 OA
HETATM   16  H   UNL     1      26.497  68.504  23.274  1.00  0.00     0.209 HD
ENDBRANCH  14  15
ENDBRANCH  10  14
BRANCH  11  17
HETATM   17  O   UNL     1      25.110  69.151  28.301  1.00  0.00    -0.348 OA
BRANCH  17  18
HETATM   18  C   UNL     1      25.331  67.746  28.324  1.00  0.00     0.296 C 
HETATM   19  O   UNL     1      24.355  67.128  29.156  1.00  0.00    -0.351 OA
HETATM   20  C   UNL     1      24.799  66.025  29.963  1.00  0.00     0.150 C 
HETATM   21  C   UNL     1      25.796  65.147  29.214  1.00  0.00     0.068 C 
HETATM   22  C   UNL     1      27.000  65.940  28.687  1.00  0.00     0.158 C 
HETATM   23  C   UNL     1      26.814  67.479  28.712  1.00  0.00     0.303 C 
BRANCH  20  24
HETATM   24  C   UNL     1      23.568  65.214  30.405  1.00  0.00     0.196 C 
BRANCH  24  25
HETATM   25  O   UNL     1      22.513  65.384  29.460  1.00  0.00    -0.398 OA
HETATM   26  H   UNL     1      22.827  65.038  28.607  1.00  0.00     0.209 HD
ENDBRANCH  24  25
ENDBRANCH  20  24
BRANCH  22  27
HETATM   27  O   UNL     1      28.170  65.575  29.429  1.00  0.00    -0.393 OA
HETATM   28  H   UNL     1      28.268  66.277  30.107  1.00  0.00     0.210 HD
ENDBRANCH  22  27
BRANCH  23  29
HETATM   29  N   UNL     1      27.298  67.986  30.029  1.00  0.00     0.097 N 
HETATM   30  H   UNL     1      26.621  68.690  30.337  1.00  0.00     0.316 HD
BRANCH  29  31
HETATM   31  C   UNL     1      28.588  68.697  30.032  1.00  0.00     0.296 C 
BRANCH  31  32
HETATM   32  C   UNL     1      29.187  69.075  28.615  1.00  0.00     0.120 C 
BRANCH  32  33
HETATM   33  C   UNL     1      30.583  68.379  28.438  1.00  0.00     0.053 C 
BRANCH  33  34
HETATM   34  C   UNL     1      31.842  68.838  29.279  1.00  0.00     0.094 C 
BRANCH  34  35
HETATM   35  C   UNL     1      33.156  68.267  28.562  1.00  0.00     0.051 C 
BRANCH  35  36
HETATM   36  C   UNL     1      34.539  68.081  29.278  1.00  0.00     0.094 C 
BRANCH  36  37
HETATM   37  C   UNL     1      34.991  69.329  30.116  1.00  0.00     0.051 C 
BRANCH  37  38
HETATM   38  C   UNL     1      36.416  69.878  29.796  1.00  0.00     0.094 C 
BRANCH  38  39
HETATM   39  C   UNL     1      37.231  68.921  28.855  1.00  0.00     0.051 C 
BRANCH  39  40
HETATM   40  C   UNL     1      38.653  68.406  29.216  1.00  0.00     0.089 C 
HETATM   41  C   UNL     1      38.978  67.168  28.362  1.00  0.00     0.033 C 
BRANCH  40  42
HETATM   42  N   UNL     1      39.744  69.358  29.069  1.00  0.00    -0.334 N 
HETATM   43  C   UNL     1      40.369  69.662  27.888  1.00  0.00     0.210 A 
HETATM   44  N   UNL     1      41.301  70.570  28.056  1.00  0.00    -0.254 NA
HETATM   45  C   UNL     1      41.269  70.873  29.392  1.00  0.00     0.150 A 
HETATM   46  C   UNL     1      40.295  70.146  30.041  1.00  0.00     0.082 A 
ENDBRANCH  40  42
ENDBRANCH  39  40
ENDBRANCH  38  39
BRANCH  38  47
HETATM   47  N   UNL     1      36.511  71.302  29.512  1.00  0.00    -0.339 N 
HETATM   48  C   UNL     1      37.159  72.239  30.272  1.00  0.00     0.209 C 
HETATM   49  N   UNL     1      36.914  73.459  29.858  1.00  0.00    -0.254 NA
HETATM   50  C   UNL     1      36.226  73.311  28.693  1.00  0.00     0.142 C 
HETATM   51  C   UNL     1      36.020  71.976  28.405  1.00  0.00     0.026 C 
HETATM   52  C   UNL     1      35.467  71.393  27.158  1.00  0.00     0.070 C 
ENDBRANCH  38  47
ENDBRANCH  37  38
ENDBRANCH  36  37
BRANCH  36  53
HETATM   53  N   UNL     1      34.535  66.929  30.187  1.00  0.00    -0.345 N 
HETATM   54  C   UNL     1      35.225  65.761  30.023  1.00  0.00     0.209 A 
HETATM   55  N   UNL     1      35.118  64.988  31.080  1.00  0.00    -0.255 NA
HETATM   56  C   UNL     1      34.343  65.680  31.966  1.00  0.00     0.135 A 
HETATM   57  C   UNL     1      33.997  66.904  31.448  1.00  0.00     0.111 A 
ENDBRANCH  36  53
ENDBRANCH  35  36
ENDBRANCH  34  35
BRANCH  34  58
HETATM   58  N   UNL     1      31.801  70.192  29.847  1.00  0.00    -0.339 N 
HETATM   59  C   UNL     1      32.338  71.288  29.206  1.00  0.00     0.209 C 
HETATM   60  N   UNL     1      32.271  72.392  29.904  1.00  0.00    -0.254 NA
HETATM   61  C   UNL     1      31.800  72.001  31.110  1.00  0.00     0.142 C 
HETATM   62  C   UNL     1      31.622  70.630  31.159  1.00  0.00     0.026 C 
HETATM   63  C   UNL     1      31.383  69.864  32.407  1.00  0.00     0.070 C 
ENDBRANCH  34  58
ENDBRANCH  33  34
ENDBRANCH  32  33
BRANCH  32  64
HETATM   64  N   UNL     1      29.107  70.487  28.233  1.00  0.00    -0.344 N 
HETATM   65  C   UNL     1      28.597  71.559  28.918  1.00  0.00     0.111 A 
HETATM   66  C   UNL     1      28.749  72.652  28.101  1.00  0.00     0.135 A 
HETATM   67  N   UNL     1      29.297  72.282  26.913  1.00  0.00    -0.255 NA
HETATM   68  C   UNL     1      29.497  70.989  27.016  1.00  0.00     0.209 A 
ENDBRANCH  32  64
ENDBRANCH  31  32
ENDBRANCH  29  31
ENDBRANCH  23  29
ENDBRANCH  17  18
ENDBRANCH  11  17
BRANCH  12  69
HETATM   69  O   UNL     1      22.464  68.659  27.434  1.00  0.00    -0.391 OA
HETATM   70  H   UNL     1      21.995  68.385  26.621  1.00  0.00     0.210 HD
ENDBRANCH  12  69
BRANCH  13  71
HETATM   71  N   UNL     1      21.185  70.681  25.890  1.00  0.00     0.090 N 
HETATM   72  H   UNL     1      20.787  69.913  25.340  1.00  0.00     0.313 HD
HETATM   73  H   UNL     1      20.993  71.510  25.312  1.00  0.00     0.313 HD
ENDBRANCH  13  71
ENDBRANCH   7   8
ENDBRANCH   1   7
BRANCH   2  74
HETATM   74  C   UNL     1      23.597  69.315  20.599  1.00  0.00     0.198 C 
BRANCH  74  75
HETATM   75  O   UNL     1      23.385  70.710  20.422  1.00  0.00    -0.398 OA
HETATM   76  H   UNL     1      22.541  70.943  20.847  1.00  0.00     0.209 HD
ENDBRANCH  74  75
ENDBRANCH   2  74
BRANCH   3  77
HETATM   77  O   UNL     1      19.904  70.847  23.399  1.00  0.00    -0.391 OA
HETATM   78  H   UNL     1      19.972  71.816  23.354  1.00  0.00     0.210 HD
ENDBRANCH   3  77
BRANCH   4  79
HETATM   79  N   UNL     1      19.196  68.229  22.477  1.00  0.00     0.097 N 
HETATM   80  H   UNL     1      19.665  68.400  23.360  1.00  0.00     0.316 HD
BRANCH  79  81
HETATM   81  C   UNL     1      17.769  67.914  22.671  1.00  0.00     0.296 C 
BRANCH  81  82
HETATM   82  C   UNL     1      17.184  68.110  24.169  1.00  0.00     0.120 C 
BRANCH  82  83
HETATM   83  N   UNL     1      16.948  69.509  24.522  1.00  0.00    -0.344 N 
HETATM   84  C   UNL     1      16.391  70.499  23.753  1.00  0.00     0.111 A 
HETATM   85  C   UNL     1      16.428  71.637  24.525  1.00  0.00     0.135 A 
HETATM   86  N   UNL     1      17.028  71.382  25.726  1.00  0.00    -0.255 NA
HETATM   87  C   UNL     1      17.358  70.113  25.682  1.00  0.00     0.209 A 
ENDBRANCH  82  83
BRANCH  82  88
HETATM   88  C   UNL     1      15.998  67.113  24.448  1.00  0.00     0.053 C 
BRANCH  88  89
HETATM   89  C   UNL     1      16.028  65.535  24.259  1.00  0.00     0.094 C 
BRANCH  89  90
HETATM   90  C   UNL     1      16.338  64.666  25.565  1.00  0.00     0.051 C 
BRANCH  90  91
HETATM   91  C   UNL     1      17.829  64.171  25.866  1.00  0.00     0.094 C 
BRANCH  91  92
HETATM   92  N   UNL     1      18.816  65.253  25.765  1.00  0.00    -0.345 N 
HETATM   93  C   UNL     1      19.797  65.378  24.817  1.00  0.00     0.111 A 
HETATM   94  C   UNL     1      20.615  66.386  25.272  1.00  0.00     0.135 A 
HETATM   95  N   UNL     1      20.170  66.860  26.474  1.00  0.00    -0.255 NA
HETATM   96  C   UNL     1      19.083  66.174  26.742  1.00  0.00     0.209 A 
ENDBRANCH  91  92
BRANCH  91  97
HETATM   97  C   UNL     1      18.348  62.983  24.968  1.00  0.00     0.051 C 
BRANCH  97  98
HETATM   98  C   UNL     1      17.848  61.524  25.312  1.00  0.00     0.094 C 
BRANCH  98  99
HETATM   99  C   UNL     1      17.605  61.359  26.874  1.00  0.00     0.051 C 
BRANCH  99 100
HETATM  100  C   UNL     1      18.733  60.973  27.883  1.00  0.00     0.089 C 
HETATM  101  C   UNL     1      19.008  59.458  27.812  1.00  0.00     0.033 C 
BRANCH 100 102
HETATM  102  N   UNL     1      20.008  61.658  27.706  1.00  0.00    -0.334 N 
HETATM  103  C   UNL     1      21.143  61.157  27.127  1.00  0.00     0.082 A 
HETATM  104  C   UNL     1      22.058  62.183  27.204  1.00  0.00     0.150 A 
HETATM  105  N   UNL     1      21.526  63.271  27.846  1.00  0.00    -0.254 NA
HETATM  106  C   UNL     1      20.290  62.930  28.133  1.00  0.00     0.210 A 
ENDBRANCH 100 102
ENDBRANCH  99 100
ENDBRANCH  98  99
BRANCH  98 107
HETATM  107  N   UNL     1      16.869  60.881  24.444  1.00  0.00    -0.339 N 
HETATM  108  C   UNL     1      15.918  61.496  23.678  1.00  0.00     0.209 C 
HETATM  109  N   UNL     1      14.869  60.725  23.502  1.00  0.00    -0.254 NA
HETATM  110  C   UNL     1      15.261  59.493  23.924  1.00  0.00     0.142 C 
HETATM  111  C   UNL     1      16.561  59.532  24.385  1.00  0.00     0.026 C 
HETATM  112  C   UNL     1      17.464  58.391  24.635  1.00  0.00     0.070 C 
ENDBRANCH  98 107
ENDBRANCH  97  98
ENDBRANCH  91  97
ENDBRANCH  90  91
ENDBRANCH  89  90
BRANCH  89 113
HETATM  113  N   UNL     1      15.171  64.950  23.213  1.00  0.00    -0.339 N 
HETATM  114  C   UNL     1      13.819  64.693  23.088  1.00  0.00     0.026 C 
HETATM  115  C   UNL     1      13.658  64.185  21.808  1.00  0.00     0.142 C 
HETATM  116  C   UNL     1      12.697  64.927  24.017  1.00  0.00     0.070 C 
HETATM  117  N   UNL     1      14.797  64.301  21.084  1.00  0.00    -0.254 NA
HETATM  118  C   UNL     1      15.641  64.832  21.915  1.00  0.00     0.209 C 
ENDBRANCH  89 113
ENDBRANCH  88  89
ENDBRANCH  82  88
ENDBRANCH  81  82
ENDBRANCH  79  81
ENDBRANCH   4  79
BRANCH   5 119
HETATM  119  O   UNL     1      19.668  68.628  19.071  1.00  0.00    -0.348 OA
BRANCH 119 120
HETATM  120  C   UNL     1      20.198  67.451  18.384  1.00  0.00     0.186 C 
HETATM  121  C   UNL     1      19.226  66.246  18.444  1.00  0.00     0.179 C 
HETATM  122  O   UNL     1      18.648  65.925  17.169  1.00  0.00    -0.349 OA
HETATM  123  C   UNL     1      19.563  65.631  16.108  1.00  0.00     0.296 C 
HETATM  124  C   UNL     1      20.806  66.584  16.083  1.00  0.00     0.303 C 
HETATM  125  C   UNL     1      20.553  67.846  16.936  1.00  0.00     0.187 C 
BRANCH 121 126
HETATM  126  C   UNL     1      19.905  64.988  19.023  1.00  0.00     0.198 C 
BRANCH 126 127
HETATM  127  O   UNL     1      20.844  65.326  20.038  1.00  0.00    -0.398 OA
HETATM  128  H   UNL     1      20.950  66.298  20.040  1.00  0.00     0.209 HD
ENDBRANCH 126 127
ENDBRANCH 121 126
BRANCH 123 129
HETATM  129  O   UNL     1      18.833  65.744  14.879  1.00  0.00    -0.348 OA
BRANCH 129 130
HETATM  130  C   UNL     1      17.422  65.486  14.961  1.00  0.00     0.186 C 
HETATM  131  C   UNL     1      16.611  66.678  14.395  1.00  0.00     0.176 C 
HETATM  132  O   UNL     1      15.477  66.255  13.595  1.00  0.00    -0.379 OA
HETATM  133  C   UNL     1      14.750  65.163  14.160  1.00  0.00     0.206 C 
HETATM  134  C   UNL     1      15.601  63.875  14.196  1.00  0.00     0.272 C 
HETATM  135  C   UNL     1      17.111  64.216  14.132  1.00  0.00     0.184 C 
BRANCH 131 136
HETATM  136  C   UNL     1      16.111  67.638  15.482  1.00  0.00     0.198 C 
BRANCH 136 137
HETATM  137  O   UNL     1      15.394  68.718  14.886  1.00  0.00    -0.398 OA
HETATM  138  H   UNL     1      14.859  68.330  14.166  1.00  0.00     0.209 HD
ENDBRANCH 136 137
ENDBRANCH 131 136
BRANCH 134 139
HETATM  139  N   UNL     1      15.249  62.916  13.128  1.00  0.00     0.087 N 
HETATM  140  H   UNL     1      16.057  62.847  12.496  1.00  0.00     0.313 HD
HETATM  141  H   UNL     1      14.492  63.272  12.547  1.00  0.00     0.313 HD
ENDBRANCH 134 139
BRANCH 135 142
HETATM  142  O   UNL     1      17.501  64.380  12.752  1.00  0.00    -0.391 OA
HETATM  143  H   UNL     1      17.364  65.321  12.528  1.00  0.00     0.210 HD
ENDBRANCH 135 142
ENDBRANCH 129 130
ENDBRANCH 123 129
BRANCH 124 144
HETATM  144  N   UNL     1      21.261  66.912  14.712  1.00  0.00     0.090 N 
HETATM  145  H   UNL     1      22.106  66.382  14.501  1.00  0.00     0.313 HD
HETATM  146  H   UNL     1      21.605  67.881  14.771  1.00  0.00     0.313 HD
ENDBRANCH 124 144
BRANCH 125 147
HETATM  147  O   UNL     1      19.563  68.688  16.344  1.00  0.00    -0.391 OA
HETATM  148  H   UNL     1      19.764  69.602  16.625  1.00  0.00     0.210 HD
ENDBRANCH 125 147
ENDBRANCH 119 120
ENDBRANCH   5 119
TORSDOF 58
ENDMDL
MODEL 9
REMARK VINA RESULT:      -6.6      4.759     10.910
REMARK WARNING: 32 MAX_TORS EXCEEDED!!!
REMARK  58 active torsions:
REMARK  status: ('A' for Active; 'I' for Inactive)
REMARK    1  A    between atoms: C_1  and  O_30 
REMARK    2  A    between atoms: C_2  and  C_6 
REMARK    3  A    between atoms: C_3  and  O_9 
REMARK    4  A    between atoms: C_4  and  N_11 
REMARK    5  A    between atoms: C_5  and  O_12 
REMARK    6  A    between atoms: C_6  and  O_7 
REMARK    7  A    between atoms: N_11  and  C_118 
REMARK    8  A    between atoms: O_12  and  C_20 
REMARK    9  A    between atoms: O_14  and  C_18 
REMARK   10  A    between atoms: C_16  and  C_23 
REMARK   11  A    between atoms: O_17  and  C_23 
REMARK   12  A    between atoms: O_19  and  C_22 
REMARK   13  A    between atoms: O_19  and  C_42 
REMARK   14  A    between atoms: N_21  and  C_24 
REMARK   15  A    between atoms: O_26  and  C_29 
REMARK   16  A    between atoms: C_28  and  C_34 
REMARK   17  A    between atoms: O_30  and  C_33 
REMARK   18  A    between atoms: C_31  and  O_53 
REMARK   19  A    between atoms: N_32  and  C_35 
REMARK   20  A    between atoms: C_34  and  O_65 
REMARK   21  A    between atoms: O_37  and  C_41 
REMARK   22  A    between atoms: C_39  and  C_45 
REMARK   23  A    between atoms: O_40  and  C_45 
REMARK   24  A    between atoms: N_43  and  C_46 
REMARK   25  A    between atoms: O_48  and  C_52 
REMARK   26  A    between atoms: C_50  and  C_57 
REMARK   27  A    between atoms: O_51  and  C_57 
REMARK   28  A    between atoms: O_53  and  C_56 
REMARK   29  A    between atoms: N_55  and  C_58 
REMARK   30  A    between atoms: N_55  and  C_71 
REMARK   31  A    between atoms: C_71  and  C_73 
REMARK   32  A    between atoms: C_73  and  C_74 
REMARK   33  A    between atoms: C_73  and  N_87 
REMARK   34  A    between atoms: C_74  and  C_75 
REMARK   35  A    between atoms: C_75  and  C_76 
REMARK   36  A    between atoms: C_75  and  N_101 
REMARK   37  A    between atoms: C_76  and  C_77 
REMARK   38  A    between atoms: C_77  and  C_78 
REMARK   39  A    between atoms: C_77  and  N_91 
REMARK   40  A    between atoms: C_78  and  C_79 
REMARK   41  A    between atoms: C_79  and  C_80 
REMARK   42  A    between atoms: C_79  and  N_106 
REMARK   43  A    between atoms: C_80  and  C_81 
REMARK   44  A    between atoms: C_81  and  N_96 
REMARK   45  A    between atoms: N_113  and  C_119 
REMARK   46  A    between atoms: C_118  and  C_119 
REMARK   47  A    between atoms: C_119  and  C_126 
REMARK   48  A    between atoms: N_122  and  C_128 
REMARK   49  A    between atoms: C_124  and  C_128 
REMARK   50  A    between atoms: C_124  and  C_130 
REMARK   51  A    between atoms: N_125  and  C_135 
REMARK   52  A    between atoms: C_126  and  C_130 
REMARK   53  A    between atoms: C_128  and  C_132 
REMARK   54  A    between atoms: N_129  and  C_130 
REMARK   55  A    between atoms: C_132  and  C_137 
REMARK   56  A    between atoms: C_135  and  C_136 
REMARK   57  A    between atoms: C_136  and  C_137 
REMARK   58  A    between atoms: C_137  and  N_140 
ROOT
HETATM    1  C   UNL     1      27.127  69.183  27.634  1.00  0.00     0.186 C 
HETATM    2  C   UNL     1      27.595  69.670  26.208  1.00  0.00     0.179 C 
HETATM    3  C   UNL     1      28.255  69.105  28.712  1.00  0.00     0.188 C 
HETATM    4  C   UNL     1      29.401  70.131  28.477  1.00  0.00     0.306 C 
HETATM    5  C   UNL     1      29.834  69.736  27.028  1.00  0.00     0.296 C 
HETATM    6  O   UNL     1      28.903  70.300  26.128  1.00  0.00    -0.349 OA
ENDROOT
BRANCH   1   7
HETATM    7  O   UNL     1      26.048  70.017  28.096  1.00  0.00    -0.348 OA
BRANCH   7   8
HETATM    8  C   UNL     1      24.797  69.326  28.284  1.00  0.00     0.296 C 
HETATM    9  O   UNL     1      25.028  67.947  27.980  1.00  0.00    -0.349 OA
HETATM   10  C   UNL     1      23.867  67.093  28.046  1.00  0.00     0.179 C 
HETATM   11  C   UNL     1      22.664  67.673  27.268  1.00  0.00     0.186 C 
HETATM   12  C   UNL     1      23.101  68.883  26.427  1.00  0.00     0.187 C 
HETATM   13  C   UNL     1      23.695  69.950  27.359  1.00  0.00     0.303 C 
BRANCH  10  14
HETATM   14  C   UNL     1      23.504  66.778  29.510  1.00  0.00     0.198 C 
BRANCH  14  15
HETATM   15  O   UNL     1      23.415  65.375  29.745  1.00  0.00    -0.398 OA
HETATM   16  H   UNL     1      22.687  65.229  30.377  1.00  0.00     0.209 HD
ENDBRANCH  14  15
ENDBRANCH  10  14
BRANCH  11  17
HETATM   17  O   UNL     1      22.084  66.722  26.372  1.00  0.00    -0.348 OA
BRANCH  17  18
HETATM   18  C   UNL     1      21.326  65.688  26.988  1.00  0.00     0.296 C 
HETATM   19  O   UNL     1      22.129  64.518  27.101  1.00  0.00    -0.351 OA
HETATM   20  C   UNL     1      21.471  63.260  26.885  1.00  0.00     0.150 C 
HETATM   21  C   UNL     1      20.064  63.252  27.476  1.00  0.00     0.068 C 
HETATM   22  C   UNL     1      19.198  64.404  26.949  1.00  0.00     0.158 C 
HETATM   23  C   UNL     1      19.989  65.516  26.212  1.00  0.00     0.303 C 
BRANCH  20  24
HETATM   24  C   UNL     1      22.335  62.141  27.495  1.00  0.00     0.196 C 
BRANCH  24  25
HETATM   25  O   UNL     1      22.736  61.230  26.474  1.00  0.00    -0.398 OA
HETATM   26  H   UNL     1      23.584  60.840  26.749  1.00  0.00     0.209 HD
ENDBRANCH  24  25
ENDBRANCH  20  24
BRANCH  22  27
HETATM   27  O   UNL     1      18.178  63.877  26.092  1.00  0.00    -0.393 OA
HETATM   28  H   UNL     1      17.567  64.629  25.935  1.00  0.00     0.210 HD
ENDBRANCH  22  27
BRANCH  23  29
HETATM   29  N   UNL     1      20.057  65.158  24.765  1.00  0.00     0.097 N 
HETATM   30  H   UNL     1      20.960  65.500  24.423  1.00  0.00     0.316 HD
BRANCH  29  31
HETATM   31  C   UNL     1      19.068  65.794  23.878  1.00  0.00     0.296 C 
BRANCH  31  32
HETATM   32  C   UNL     1      19.460  67.212  23.290  1.00  0.00     0.120 C 
BRANCH  32  33
HETATM   33  C   UNL     1      20.883  67.128  22.631  1.00  0.00     0.053 C 
BRANCH  33  34
HETATM   34  C   UNL     1      21.058  66.779  21.099  1.00  0.00     0.094 C 
BRANCH  34  35
HETATM   35  C   UNL     1      19.602  66.561  20.467  1.00  0.00     0.051 C 
BRANCH  35  36
HETATM   36  C   UNL     1      18.880  67.599  19.539  1.00  0.00     0.094 C 
BRANCH  36  37
HETATM   37  C   UNL     1      17.536  67.071  18.924  1.00  0.00     0.051 C 
BRANCH  37  38
HETATM   38  C   UNL     1      17.682  65.981  17.817  1.00  0.00     0.094 C 
BRANCH  38  39
HETATM   39  C   UNL     1      16.655  64.806  17.991  1.00  0.00     0.051 C 
BRANCH  39  40
HETATM   40  C   UNL     1      17.100  63.339  18.251  1.00  0.00     0.089 C 
HETATM   41  C   UNL     1      18.297  63.001  17.345  1.00  0.00     0.033 C 
BRANCH  40  42
HETATM   42  N   UNL     1      17.459  63.004  19.621  1.00  0.00    -0.334 N 
HETATM   43  C   UNL     1      18.161  61.890  20.000  1.00  0.00     0.210 A 
HETATM   44  N   UNL     1      18.356  61.861  21.297  1.00  0.00    -0.254 NA
HETATM   45  C   UNL     1      17.770  63.005  21.772  1.00  0.00     0.150 A 
HETATM   46  C   UNL     1      17.221  63.743  20.746  1.00  0.00     0.082 A 
ENDBRANCH  40  42
ENDBRANCH  39  40
ENDBRANCH  38  39
BRANCH  38  47
HETATM   47  N   UNL     1      17.892  66.463  16.459  1.00  0.00    -0.339 N 
HETATM   48  C   UNL     1      16.980  67.127  15.684  1.00  0.00     0.209 C 
HETATM   49  N   UNL     1      17.398  67.268  14.450  1.00  0.00    -0.254 NA
HETATM   50  C   UNL     1      18.688  66.836  14.456  1.00  0.00     0.142 C 
HETATM   51  C   UNL     1      19.058  66.395  15.711  1.00  0.00     0.026 C 
HETATM   52  C   UNL     1      20.413  66.009  16.174  1.00  0.00     0.070 C 
ENDBRANCH  38  47
ENDBRANCH  37  38
ENDBRANCH  36  37
BRANCH  36  53
HETATM   53  N   UNL     1      18.571  68.845  20.249  1.00  0.00    -0.345 N 
HETATM   54  C   UNL     1      17.439  69.113  20.967  1.00  0.00     0.209 A 
HETATM   55  N   UNL     1      17.529  70.264  21.593  1.00  0.00    -0.255 NA
HETATM   56  C   UNL     1      18.765  70.756  21.284  1.00  0.00     0.135 A 
HETATM   57  C   UNL     1      19.445  69.876  20.478  1.00  0.00     0.111 A 
ENDBRANCH  36  53
ENDBRANCH  35  36
ENDBRANCH  34  35
BRANCH  34  58
HETATM   58  N   UNL     1      22.113  67.498  20.373  1.00  0.00    -0.339 N 
HETATM   59  C   UNL     1      22.841  66.925  19.351  1.00  0.00     0.209 C 
HETATM   60  N   UNL     1      23.786  67.697  18.879  1.00  0.00    -0.254 NA
HETATM   61  C   UNL     1      23.787  68.770  19.701  1.00  0.00     0.142 C 
HETATM   62  C   UNL     1      22.857  68.626  20.716  1.00  0.00     0.026 C 
HETATM   63  C   UNL     1      22.800  69.488  21.923  1.00  0.00     0.070 C 
ENDBRANCH  34  58
ENDBRANCH  33  34
ENDBRANCH  32  33
BRANCH  32  64
HETATM   64  N   UNL     1      19.209  68.365  24.159  1.00  0.00    -0.344 N 
HETATM   65  C   UNL     1      18.052  68.774  24.770  1.00  0.00     0.111 A 
HETATM   66  C   UNL     1      18.358  69.927  25.451  1.00  0.00     0.135 A 
HETATM   67  N   UNL     1      19.657  70.268  25.245  1.00  0.00    -0.255 NA
HETATM   68  C   UNL     1      20.140  69.326  24.469  1.00  0.00     0.209 A 
ENDBRANCH  32  64
ENDBRANCH  31  32
ENDBRANCH  29  31
ENDBRANCH  23  29
ENDBRANCH  17  18
ENDBRANCH  11  17
BRANCH  12  69
HETATM   69  O   UNL     1      24.044  68.516  25.406  1.00  0.00    -0.391 OA
HETATM   70  H   UNL     1      24.026  69.218  24.725  1.00  0.00     0.210 HD
ENDBRANCH  12  69
BRANCH  13  71
HETATM   71  N   UNL     1      24.137  71.116  26.566  1.00  0.00     0.090 N 
HETATM   72  H   UNL     1      24.493  70.728  25.687  1.00  0.00     0.313 HD
HETATM   73  H   UNL     1      24.987  71.455  27.036  1.00  0.00     0.313 HD
ENDBRANCH  13  71
ENDBRANCH   7   8
ENDBRANCH   1   7
BRANCH   2  74
HETATM   74  C   UNL     1      27.539  68.482  25.214  1.00  0.00     0.198 C 
BRANCH  74  75
HETATM   75  O   UNL     1      26.669  68.768  24.126  1.00  0.00    -0.398 OA
HETATM   76  H   UNL     1      26.174  69.578  24.340  1.00  0.00     0.209 HD
ENDBRANCH  74  75
ENDBRANCH   2  74
BRANCH   3  77
HETATM   77  O   UNL     1      27.739  69.141  30.046  1.00  0.00    -0.391 OA
HETATM   78  H   UNL     1      27.612  68.226  30.351  1.00  0.00     0.210 HD
ENDBRANCH   3  77
BRANCH   4  79
HETATM   79  N   UNL     1      28.882  71.483  28.857  1.00  0.00     0.097 N 
HETATM   80  H   UNL     1      27.888  71.422  29.052  1.00  0.00     0.316 HD
BRANCH  79  81
HETATM   81  C   UNL     1      29.591  72.273  29.879  1.00  0.00     0.296 C 
BRANCH  81  82
HETATM   82  C   UNL     1      29.777  71.576  31.330  1.00  0.00     0.120 C 
BRANCH  82  83
HETATM   83  N   UNL     1      31.121  71.733  31.881  1.00  0.00    -0.344 N 
HETATM   84  C   UNL     1      31.807  72.892  32.137  1.00  0.00     0.111 A 
HETATM   85  C   UNL     1      33.039  72.501  32.612  1.00  0.00     0.135 A 
HETATM   86  N   UNL     1      33.140  71.139  32.614  1.00  0.00    -0.255 NA
HETATM   87  C   UNL     1      31.994  70.708  32.141  1.00  0.00     0.209 A 
ENDBRANCH  82  83
BRANCH  82  88
HETATM   88  C   UNL     1      28.585  71.943  32.290  1.00  0.00     0.053 C 
BRANCH  88  89
HETATM   89  C   UNL     1      27.596  73.178  32.136  1.00  0.00     0.094 C 
BRANCH  89  90
HETATM   90  C   UNL     1      28.251  74.634  32.225  1.00  0.00     0.051 C 
BRANCH  90  91
HETATM   91  C   UNL     1      27.451  75.835  32.915  1.00  0.00     0.094 C 
BRANCH  91  92
HETATM   92  N   UNL     1      26.665  75.398  34.076  1.00  0.00    -0.345 N 
HETATM   93  C   UNL     1      27.155  74.914  35.260  1.00  0.00     0.111 A 
HETATM   94  C   UNL     1      26.062  74.408  35.925  1.00  0.00     0.135 A 
HETATM   95  N   UNL     1      24.932  74.553  35.172  1.00  0.00    -0.255 NA
HETATM   96  C   UNL     1      25.317  75.161  34.073  1.00  0.00     0.209 A 
ENDBRANCH  91  92
BRANCH  91  97
HETATM   97  C   UNL     1      26.477  76.638  31.970  1.00  0.00     0.051 C 
BRANCH  97  98
HETATM   98  C   UNL     1      26.490  78.215  32.064  1.00  0.00     0.094 C 
BRANCH  98  99
HETATM   99  C   UNL     1      27.818  78.732  32.770  1.00  0.00     0.051 C 
BRANCH  99 100
HETATM  100  C   UNL     1      27.817  79.619  34.056  1.00  0.00     0.089 C 
HETATM  101  C   UNL     1      27.980  78.733  35.306  1.00  0.00     0.033 C 
BRANCH 100 102
HETATM  102  N   UNL     1      28.843  80.653  34.117  1.00  0.00    -0.334 N 
HETATM  103  C   UNL     1      28.719  81.964  33.740  1.00  0.00     0.082 A 
HETATM  104  C   UNL     1      29.955  82.518  33.989  1.00  0.00     0.150 A 
HETATM  105  N   UNL     1      30.831  81.577  34.464  1.00  0.00    -0.254 NA
HETATM  106  C   UNL     1      30.135  80.465  34.535  1.00  0.00     0.210 A 
ENDBRANCH 100 102
ENDBRANCH  99 100
ENDBRANCH  98  99
BRANCH  98 107
HETATM  107  N   UNL     1      26.025  79.003  30.930  1.00  0.00    -0.339 N 
HETATM  108  C   UNL     1      26.777  79.811  30.124  1.00  0.00     0.209 C 
HETATM  109  N   UNL     1      26.061  80.792  29.622  1.00  0.00    -0.254 NA
HETATM  110  C   UNL     1      24.769  80.455  29.881  1.00  0.00     0.142 C 
HETATM  111  C   UNL     1      24.711  79.263  30.574  1.00  0.00     0.026 C 
HETATM  112  C   UNL     1      23.535  78.394  30.776  1.00  0.00     0.070 C 
ENDBRANCH  98 107
ENDBRANCH  97  98
ENDBRANCH  91  97
ENDBRANCH  90  91
ENDBRANCH  89  90
BRANCH  89 113
HETATM  113  N   UNL     1      26.395  72.997  31.301  1.00  0.00    -0.339 N 
HETATM  114  C   UNL     1      25.995  73.443  30.055  1.00  0.00     0.026 C 
HETATM  115  C   UNL     1      24.764  72.846  29.829  1.00  0.00     0.142 C 
HETATM  116  C   UNL     1      26.671  74.309  29.071  1.00  0.00     0.070 C 
HETATM  117  N   UNL     1      24.486  71.915  30.773  1.00  0.00    -0.254 NA
HETATM  118  C   UNL     1      25.504  71.971  31.576  1.00  0.00     0.209 C 
ENDBRANCH  89 113
ENDBRANCH  88  89
ENDBRANCH  82  88
ENDBRANCH  81  82
ENDBRANCH  79  81
ENDBRANCH   4  79
BRANCH   5 119
HETATM  119  O   UNL     1      31.213  70.028  26.751  1.00  0.00    -0.348 OA
BRANCH 119 120
HETATM  120  C   UNL     1      32.033  70.074  27.960  1.00  0.00     0.186 C 
HETATM  121  C   UNL     1      32.978  68.852  28.078  1.00  0.00     0.179 C 
HETATM  122  O   UNL     1      34.363  69.195  27.909  1.00  0.00    -0.349 OA
HETATM  123  C   UNL     1      34.892  70.180  28.803  1.00  0.00     0.296 C 
HETATM  124  C   UNL     1      33.911  71.374  29.054  1.00  0.00     0.303 C 
HETATM  125  C   UNL     1      32.799  71.412  27.983  1.00  0.00     0.187 C 
BRANCH 121 126
HETATM  126  C   UNL     1      32.800  68.114  29.421  1.00  0.00     0.198 C 
BRANCH 126 127
HETATM  127  O   UNL     1      33.536  66.896  29.445  1.00  0.00    -0.398 OA
HETATM  128  H   UNL     1      33.825  66.735  30.365  1.00  0.00     0.209 HD
ENDBRANCH 126 127
ENDBRANCH 121 126
BRANCH 123 129
HETATM  129  O   UNL     1      36.113  70.660  28.225  1.00  0.00    -0.348 OA
BRANCH 129 130
HETATM  130  C   UNL     1      37.320  70.043  28.703  1.00  0.00     0.186 C 
HETATM  131  C   UNL     1      37.787  68.929  27.734  1.00  0.00     0.176 C 
HETATM  132  O   UNL     1      39.224  68.923  27.538  1.00  0.00    -0.379 OA
HETATM  133  C   UNL     1      39.970  69.116  28.742  1.00  0.00     0.206 C 
HETATM  134  C   UNL     1      39.742  70.526  29.329  1.00  0.00     0.272 C 
HETATM  135  C   UNL     1      38.417  71.129  28.800  1.00  0.00     0.184 C 
BRANCH 131 136
HETATM  136  C   UNL     1      37.349  67.525  28.171  1.00  0.00     0.198 C 
BRANCH 136 137
HETATM  137  O   UNL     1      36.488  67.614  29.305  1.00  0.00    -0.398 OA
HETATM  138  H   UNL     1      36.626  66.796  29.823  1.00  0.00     0.209 HD
ENDBRANCH 136 137
ENDBRANCH 131 136
BRANCH 134 139
HETATM  139  N   UNL     1      40.864  71.452  29.066  1.00  0.00     0.087 N 
HETATM  140  H   UNL     1      41.375  71.095  28.249  1.00  0.00     0.313 HD
HETATM  141  H   UNL     1      41.542  71.435  29.827  1.00  0.00     0.313 HD
ENDBRANCH 134 139
BRANCH 135 142
HETATM  142  O   UNL     1      38.657  71.751  27.520  1.00  0.00    -0.391 OA
HETATM  143  H   UNL     1      37.791  71.832  27.076  1.00  0.00     0.210 HD
ENDBRANCH 135 142
ENDBRANCH 129 130
ENDBRANCH 123 129
BRANCH 124 144
HETATM  144  N   UNL     1      34.603  72.677  29.194  1.00  0.00     0.090 N 
HETATM  145  H   UNL     1      33.939  73.378  29.522  1.00  0.00     0.313 HD
HETATM  146  H   UNL     1      34.800  72.979  28.229  1.00  0.00     0.313 HD
ENDBRANCH 124 144
BRANCH 125 147
HETATM  147  O   UNL     1      33.319  71.763  26.701  1.00  0.00    -0.391 OA
HETATM  148  H   UNL     1      32.675  72.373  26.291  1.00  0.00     0.210 HD
ENDBRANCH 125 147
ENDBRANCH 119 120
ENDBRANCH   5 119
TORSDOF 58
ENDMDL
