MODEL 1
REMARK VINA RESULT:      -5.7      0.000      0.000
REMARK WARNING: 32 MAX_TORS EXCEEDED!!!
REMARK  88 active torsions:
REMARK  status: ('A' for Active; 'I' for Inactive)
REMARK    1  A    between atoms: C_1  and  O_28 
REMARK    2  A    between atoms: C_2  and  C_6 
REMARK    3  A    between atoms: C_3  and  O_8 
REMARK    4  A    between atoms: C_4  and  O_10 
REMARK    5  A    between atoms: C_5  and  O_11 
REMARK    6  A    between atoms: C_6  and  O_58 
REMARK    7  A    between atoms: O_11  and  C_18 
REMARK    8  A    between atoms: O_13  and  C_16 
REMARK    9  A    between atoms: C_15  and  C_21 
REMARK   10  A    between atoms: O_17  and  C_20 
REMARK   11  A    between atoms: O_17  and  C_39 
REMARK   12  A    between atoms: O_19  and  C_22 
REMARK   13  A    between atoms: O_19  and  C_153 
REMARK   14  A    between atoms: C_21  and  O_60 
REMARK   15  A    between atoms: O_24  and  C_27 
REMARK   16  A    between atoms: C_26  and  C_32 
REMARK   17  A    between atoms: O_28  and  C_31 
REMARK   18  A    between atoms: C_29  and  O_49 
REMARK   19  A    between atoms: O_30  and  C_33 
REMARK   20  A    between atoms: C_32  and  O_56 
REMARK   21  A    between atoms: O_35  and  C_38 
REMARK   22  A    between atoms: C_37  and  C_42 
REMARK   23  A    between atoms: O_40  and  C_43 
REMARK   24  A    between atoms: C_42  and  O_62 
REMARK   25  A    between atoms: O_45  and  C_48 
REMARK   26  A    between atoms: C_47  and  C_53 
REMARK   27  A    between atoms: O_49  and  C_52 
REMARK   28  A    between atoms: O_51  and  C_54 
REMARK   29  A    between atoms: O_51  and  C_64 
REMARK   30  A    between atoms: C_53  and  O_55 
REMARK   31  A    between atoms: C_64  and  C_65 
REMARK   32  A    between atoms: C_65  and  C_66 
REMARK   33  A    between atoms: C_65  and  C_75 
REMARK   34  A    between atoms: C_66  and  C_67 
REMARK   35  A    between atoms: C_67  and  C_68 
REMARK   36  A    between atoms: C_67  and  C_79 
REMARK   37  A    between atoms: C_68  and  C_69 
REMARK   38  A    between atoms: C_69  and  C_70 
REMARK   39  A    between atoms: C_69  and  C_83 
REMARK   40  A    between atoms: C_70  and  C_71 
REMARK   41  A    between atoms: C_71  and  C_72 
REMARK   42  A    between atoms: C_71  and  C_87 
REMARK   43  A    between atoms: C_72  and  C_73 
REMARK   44  A    between atoms: C_73  and  C_91 
REMARK   45  A    between atoms: C_75  and  C_76 
REMARK   46  A    between atoms: C_76  and  C_77 
REMARK   47  A    between atoms: C_77  and  N_95 
REMARK   48  A    between atoms: C_79  and  C_80 
REMARK   49  A    between atoms: C_80  and  C_81 
REMARK   50  A    between atoms: C_81  and  N_96 
REMARK   51  A    between atoms: C_83  and  C_84 
REMARK   52  A    between atoms: C_84  and  C_85 
REMARK   53  A    between atoms: C_85  and  N_97 
REMARK   54  A    between atoms: C_87  and  C_88 
REMARK   55  A    between atoms: C_88  and  C_89 
REMARK   56  A    between atoms: C_89  and  N_98 
REMARK   57  A    between atoms: C_91  and  C_92 
REMARK   58  A    between atoms: C_92  and  C_93 
REMARK   59  A    between atoms: C_93  and  N_99 
REMARK   60  A    between atoms: N_118  and  C_121 
REMARK   61  A    between atoms: C_121  and  C_127 
REMARK   62  A    between atoms: C_122  and  C_127 
REMARK   63  A    between atoms: C_122  and  C_134 
REMARK   64  A    between atoms: N_124  and  C_131 
REMARK   65  A    between atoms: C_128  and  C_129 
REMARK   66  A    between atoms: C_128  and  C_138 
REMARK   67  A    between atoms: C_129  and  C_131 
REMARK   68  A    between atoms: N_133  and  C_144 
REMARK   69  A    between atoms: C_134  and  C_145 
REMARK   70  A    between atoms: C_134  and  C_151 
REMARK   71  A    between atoms: C_136  and  C_144 
REMARK   72  A    between atoms: C_136  and  C_148 
REMARK   73  A    between atoms: C_138  and  C_154 
REMARK   74  A    between atoms: C_138  and  C_145 
REMARK   75  A    between atoms: C_140  and  C_148 
REMARK   76  A    between atoms: C_140  and  C_141 
REMARK   77  A    between atoms: C_141  and  C_155 
REMARK   78  A    between atoms: C_142  and  C_153 
REMARK   79  A    between atoms: C_142  and  C_151 
REMARK   80  A    between atoms: C_142  and  C_152 
REMARK   81  A    between atoms: C_143  and  N_149 
REMARK   82  A    between atoms: C_143  and  C_146 
REMARK   83  A    between atoms: C_146  and  C_152 
REMARK   84  A    between atoms: C_154  and  C_155 
REMARK   85  A    between atoms: C_155  and  C_161 
REMARK   86  A    between atoms: C_158  and  C_163 
REMARK   87  A    between atoms: C_158  and  C_161 
REMARK   88  A    between atoms: N_159  and  C_163 
ROOT
HETATM    1  C   UNL     1      22.666  70.166  25.477  1.00  0.00     0.187 C 
HETATM    2  C   UNL     1      23.856  71.098  25.161  1.00  0.00     0.180 C 
HETATM    3  C   UNL     1      22.291  70.240  26.971  1.00  0.00     0.183 C 
HETATM    4  C   UNL     1      23.545  70.189  27.877  1.00  0.00     0.204 C 
HETATM    5  C   UNL     1      24.571  71.304  27.472  1.00  0.00     0.292 C 
HETATM    6  O   UNL     1      24.169  71.964  26.267  1.00  0.00    -0.348 OA
ENDROOT
BRANCH   1   7
HETATM    7  O   UNL     1      21.544  70.585  24.687  1.00  0.00    -0.348 OA
BRANCH   7   8
HETATM    8  C   UNL     1      20.695  69.524  24.223  1.00  0.00     0.292 C 
HETATM    9  O   UNL     1      21.476  68.745  23.321  1.00  0.00    -0.348 OA
HETATM   10  C   UNL     1      20.777  67.783  22.515  1.00  0.00     0.180 C 
HETATM   11  C   UNL     1      19.427  68.268  21.946  1.00  0.00     0.187 C 
HETATM   12  C   UNL     1      19.242  69.771  22.124  1.00  0.00     0.183 C 
HETATM   13  C   UNL     1      19.386  70.125  23.607  1.00  0.00     0.204 C 
BRANCH  10  14
HETATM   14  C   UNL     1      20.627  66.487  23.328  1.00  0.00     0.198 C 
BRANCH  14  15
HETATM   15  O   UNL     1      20.103  65.441  22.509  1.00  0.00    -0.398 OA
HETATM   16  H   UNL     1      20.648  65.419  21.699  1.00  0.00     0.209 HD
ENDBRANCH  14  15
ENDBRANCH  10  14
BRANCH  11  17
HETATM   17  O   UNL     1      19.381  68.012  20.533  1.00  0.00    -0.348 OA
BRANCH  17  18
HETATM   18  C   UNL     1      20.645  67.661  19.982  1.00  0.00     0.292 C 
HETATM   19  O   UNL     1      21.269  68.844  19.466  1.00  0.00    -0.351 OA
HETATM   20  C   UNL     1      22.691  68.682  19.292  1.00  0.00     0.150 C 
HETATM   21  C   UNL     1      23.031  67.244  18.854  1.00  0.00     0.068 C 
HETATM   22  C   UNL     1      21.870  66.671  18.025  1.00  0.00     0.154 C 
HETATM   23  C   UNL     1      20.543  66.561  18.849  1.00  0.00     0.205 C 
BRANCH  20  24
HETATM   24  C   UNL     1      23.452  69.185  20.528  1.00  0.00     0.196 C 
BRANCH  24  25
HETATM   25  O   UNL     1      23.097  70.527  20.853  1.00  0.00    -0.398 OA
HETATM   26  H   UNL     1      22.695  70.551  21.736  1.00  0.00     0.209 HD
ENDBRANCH  24  25
ENDBRANCH  20  24
BRANCH  22  27
HETATM   27  O   UNL     1      21.682  67.549  16.903  1.00  0.00    -0.393 OA
HETATM   28  H   UNL     1      22.271  68.319  17.032  1.00  0.00     0.210 HD
ENDBRANCH  22  27
BRANCH  23  29
HETATM   29  O   UNL     1      19.339  66.716  17.972  1.00  0.00    -0.377 OA
BRANCH  29  30
HETATM   30  C   UNL     1      19.109  65.699  16.911  1.00  0.00     0.185 C 
BRANCH  30  31
HETATM   31  C   UNL     1      17.565  65.497  16.482  1.00  0.00     0.039 C 
HETATM   32  C   UNL     1      16.808  66.815  16.703  1.00  0.00     0.025 C 
BRANCH  31  33
HETATM   33  C   UNL     1      16.852  64.272  17.273  1.00  0.00     0.036 C 
BRANCH  33  34
HETATM   34  C   UNL     1      17.452  63.527  18.593  1.00  0.00     0.019 C 
HETATM   35  C   UNL     1      18.754  62.867  18.064  1.00  0.00     0.023 C 
BRANCH  34  36
HETATM   36  C   UNL     1      16.400  62.395  19.084  1.00  0.00     0.033 C 
BRANCH  36  37
HETATM   37  C   UNL     1      16.601  61.231  20.222  1.00  0.00     0.019 C 
HETATM   38  C   UNL     1      15.489  60.178  20.084  1.00  0.00     0.023 C 
BRANCH  37  39
HETATM   39  C   UNL     1      16.450  61.982  21.631  1.00  0.00     0.033 C 
BRANCH  39  40
HETATM   40  C   UNL     1      16.582  61.420  23.152  1.00  0.00     0.019 C 
HETATM   41  C   UNL     1      15.211  61.739  23.806  1.00  0.00     0.023 C 
BRANCH  40  42
HETATM   42  C   UNL     1      16.908  59.900  23.343  1.00  0.00     0.033 C 
BRANCH  42  43
HETATM   43  C   UNL     1      16.871  59.093  24.698  1.00  0.00     0.014 C 
HETATM   44  C   UNL     1      15.436  59.263  25.269  1.00  0.00     0.023 C 
HETATM   45  C   UNL     1      17.791  59.654  25.800  1.00  0.00     0.023 C 
BRANCH  43  46
HETATM   46  C   UNL     1      17.207  57.595  24.501  1.00  0.00     0.136 C 
HETATM   47  O   UNL     1      17.537  56.905  25.470  1.00  0.00    -0.297 OA
BRANCH  46  48
HETATM   48  C   UNL     1      17.230  56.983  23.103  1.00  0.00     0.109 C 
BRANCH  48  49
HETATM   49  C   UNL     1      18.600  56.352  22.808  1.00  0.00     0.279 C 
BRANCH  49  50
HETATM   50  N   UNL     1      18.494  54.977  22.279  1.00  0.00     0.080 N 
HETATM   51  C   UNL     1      19.735  54.222  22.458  1.00  0.00     0.309 C 
HETATM   52  C   UNL     1      17.396  54.263  22.941  1.00  0.00     0.309 C 
ENDBRANCH  49  50
ENDBRANCH  48  49
ENDBRANCH  46  48
ENDBRANCH  43  46
ENDBRANCH  42  43
ENDBRANCH  40  42
BRANCH  40  53
HETATM   53  C   UNL     1      17.624  62.328  23.884  1.00  0.00     0.137 C 
HETATM   54  O   UNL     1      18.828  62.224  23.678  1.00  0.00    -0.297 OA
BRANCH  53  55
HETATM   55  C   UNL     1      17.136  63.211  25.015  1.00  0.00     0.109 C 
BRANCH  55  56
HETATM   56  C   UNL     1      18.011  64.447  25.225  1.00  0.00     0.279 C 
BRANCH  56  57
HETATM   57  N   UNL     1      18.356  64.557  26.658  1.00  0.00     0.080 N 
HETATM   58  C   UNL     1      18.645  63.239  27.230  1.00  0.00     0.309 C 
HETATM   59  C   UNL     1      19.492  65.449  26.868  1.00  0.00     0.309 C 
ENDBRANCH  56  57
ENDBRANCH  55  56
ENDBRANCH  53  55
ENDBRANCH  40  53
ENDBRANCH  39  40
ENDBRANCH  37  39
BRANCH  37  60
HETATM   60  C   UNL     1      17.945  60.453  20.225  1.00  0.00     0.137 C 
HETATM   61  O   UNL     1      18.939  60.950  20.766  1.00  0.00    -0.297 OA
BRANCH  60  62
HETATM   62  C   UNL     1      18.076  59.081  19.610  1.00  0.00     0.109 C 
BRANCH  62  63
HETATM   63  C   UNL     1      18.741  59.079  18.225  1.00  0.00     0.279 C 
BRANCH  63  64
HETATM   64  N   UNL     1      17.826  58.572  17.180  1.00  0.00     0.080 N 
HETATM   65  C   UNL     1      16.945  57.524  17.700  1.00  0.00     0.309 C 
HETATM   66  C   UNL     1      17.011  59.671  16.650  1.00  0.00     0.309 C 
ENDBRANCH  63  64
ENDBRANCH  62  63
ENDBRANCH  60  62
ENDBRANCH  37  60
ENDBRANCH  36  37
ENDBRANCH  34  36
BRANCH  34  67
HETATM   67  C   UNL     1      17.800  64.384  19.847  1.00  0.00     0.137 C 
HETATM   68  O   UNL     1      18.829  64.113  20.477  1.00  0.00    -0.297 OA
BRANCH  67  69
HETATM   69  C   UNL     1      16.899  65.524  20.344  1.00  0.00     0.109 C 
BRANCH  69  70
HETATM   70  C   UNL     1      16.743  65.536  21.884  1.00  0.00     0.279 C 
BRANCH  70  71
HETATM   71  N   UNL     1      16.171  66.724  22.551  1.00  0.00     0.080 N 
HETATM   72  C   UNL     1      15.699  67.733  21.617  1.00  0.00     0.309 C 
HETATM   73  C   UNL     1      15.038  66.308  23.391  1.00  0.00     0.309 C 
ENDBRANCH  70  71
ENDBRANCH  69  70
ENDBRANCH  67  69
ENDBRANCH  34  67
ENDBRANCH  33  34
ENDBRANCH  31  33
BRANCH  31  74
HETATM   74  C   UNL     1      17.666  65.052  15.001  1.00  0.00     0.139 C 
HETATM   75  O   UNL     1      17.923  65.876  14.113  1.00  0.00    -0.297 OA
BRANCH  74  76
HETATM   76  C   UNL     1      17.315  63.640  14.587  1.00  0.00     0.109 C 
BRANCH  76  77
HETATM   77  C   UNL     1      16.910  63.637  13.124  1.00  0.00     0.279 C 
BRANCH  77  78
HETATM   78  N   UNL     1      17.251  62.408  12.393  1.00  0.00     0.080 N 
HETATM   79  C   UNL     1      16.487  62.297  11.151  1.00  0.00     0.309 C 
HETATM   80  C   UNL     1      16.989  61.238  13.239  1.00  0.00     0.309 C 
ENDBRANCH  77  78
ENDBRANCH  76  77
ENDBRANCH  74  76
ENDBRANCH  31  74
ENDBRANCH  30  31
ENDBRANCH  29  30
ENDBRANCH  23  29
ENDBRANCH  17  18
ENDBRANCH  11  17
BRANCH  12  81
HETATM   81  O   UNL     1      20.177  70.497  21.314  1.00  0.00    -0.390 OA
HETATM   82  H   UNL     1      20.945  69.896  21.217  1.00  0.00     0.210 HD
ENDBRANCH  12  81
BRANCH  13  83
HETATM   83  O   UNL     1      19.192  71.578  23.797  1.00  0.00    -0.388 OA
HETATM   84  H   UNL     1      18.289  71.819  23.539  1.00  0.00     0.210 HD
ENDBRANCH  13  83
ENDBRANCH   7   8
ENDBRANCH   1   7
BRANCH   2  85
HETATM   85  C   UNL     1      25.075  70.290  24.679  1.00  0.00     0.198 C 
BRANCH  85  86
HETATM   86  O   UNL     1      24.867  69.749  23.382  1.00  0.00    -0.398 OA
HETATM   87  H   UNL     1      25.732  69.672  22.942  1.00  0.00     0.209 HD
ENDBRANCH  85  86
ENDBRANCH   2  85
BRANCH   3  88
HETATM   88  O   UNL     1      21.529  71.426  27.249  1.00  0.00    -0.390 OA
HETATM   89  H   UNL     1      20.698  71.135  27.678  1.00  0.00     0.210 HD
ENDBRANCH   3  88
BRANCH   4  90
HETATM   90  O   UNL     1      23.176  70.231  29.312  1.00  0.00    -0.388 OA
HETATM   91  H   UNL     1      22.320  69.793  29.439  1.00  0.00     0.210 HD
ENDBRANCH   4  90
BRANCH   5  92
HETATM   92  O   UNL     1      24.660  72.328  28.486  1.00  0.00    -0.348 OA
BRANCH  92  93
HETATM   93  C   UNL     1      25.938  73.017  28.604  1.00  0.00     0.187 C 
HETATM   94  C   UNL     1      25.939  73.943  29.834  1.00  0.00     0.180 C 
HETATM   95  O   UNL     1      27.006  73.667  30.741  1.00  0.00    -0.348 OA
HETATM   96  C   UNL     1      28.311  73.500  30.191  1.00  0.00     0.292 C 
HETATM   97  C   UNL     1      28.456  72.379  29.068  1.00  0.00     0.208 C 
HETATM   98  C   UNL     1      27.008  71.893  28.763  1.00  0.00     0.183 C 
BRANCH  94  99
HETATM   99  C   UNL     1      25.961  75.438  29.482  1.00  0.00     0.198 C 
BRANCH  99 100
HETATM  100  O   UNL     1      26.335  76.211  30.621  1.00  0.00    -0.398 OA
HETATM  101  H   UNL     1      26.850  75.633  31.217  1.00  0.00     0.209 HD
ENDBRANCH  99 100
ENDBRANCH  94  99
BRANCH  96 102
HETATM  102  O   UNL     1      29.105  73.161  31.327  1.00  0.00    -0.348 OA
BRANCH 102 103
HETATM  103  C   UNL     1      28.451  73.253  32.583  1.00  0.00     0.187 C 
HETATM  104  C   UNL     1      28.726  71.985  33.417  1.00  0.00     0.176 C 
HETATM  105  O   UNL     1      28.787  72.260  34.837  1.00  0.00    -0.378 OA
HETATM  106  C   UNL     1      27.877  73.280  35.261  1.00  0.00     0.202 C 
HETATM  107  C   UNL     1      28.238  74.655  34.656  1.00  0.00     0.173 C 
HETATM  108  C   UNL     1      29.008  74.481  33.328  1.00  0.00     0.180 C 
BRANCH 104 109
HETATM  109  C   UNL     1      27.701  70.871  33.172  1.00  0.00     0.198 C 
BRANCH 109 110
HETATM  110  O   UNL     1      26.562  71.397  32.492  1.00  0.00    -0.398 OA
HETATM  111  H   UNL     1      26.489  70.900  31.654  1.00  0.00     0.209 HD
ENDBRANCH 109 110
ENDBRANCH 104 109
BRANCH 107 112
HETATM  112  O   UNL     1      29.002  75.489  35.603  1.00  0.00    -0.391 OA
HETATM  113  H   UNL     1      29.619  74.930  36.101  1.00  0.00     0.210 HD
ENDBRANCH 107 112
BRANCH 108 114
HETATM  114  O   UNL     1      30.420  74.363  33.586  1.00  0.00    -0.390 OA
HETATM  115  H   UNL     1      30.875  74.321  32.725  1.00  0.00     0.210 HD
ENDBRANCH 108 114
ENDBRANCH 102 103
ENDBRANCH  96 102
BRANCH  97 116
HETATM  116  O   UNL     1      29.412  71.310  29.524  1.00  0.00    -0.369 OA
BRANCH 116 117
HETATM  117  C   UNL     1      29.502  69.931  29.026  1.00  0.00     0.168 C 
BRANCH 117 118
HETATM  118  C   UNL     1      30.555  69.514  27.889  1.00  0.00     0.046 C 
HETATM  119  C   UNL     1      31.165  68.185  28.362  1.00  0.00     0.026 C 
BRANCH 118 120
HETATM  120  C   UNL     1      31.738  70.546  27.406  1.00  0.00     0.036 C 
BRANCH 120 121
HETATM  121  C   UNL     1      33.153  70.777  28.250  1.00  0.00     0.019 C 
HETATM  122  C   UNL     1      33.895  71.773  27.316  1.00  0.00     0.023 C 
BRANCH 121 123
HETATM  123  C   UNL     1      33.065  71.379  29.686  1.00  0.00     0.137 C 
HETATM  124  O   UNL     1      33.408  72.557  29.847  1.00  0.00    -0.297 OA
BRANCH 123 125
HETATM  125  C   UNL     1      32.598  70.551  30.898  1.00  0.00     0.109 C 
BRANCH 125 126
HETATM  126  C   UNL     1      33.325  70.929  32.209  1.00  0.00     0.279 C 
BRANCH 126 127
HETATM  127  N   UNL     1      32.718  71.916  33.125  1.00  0.00     0.080 N 
HETATM  128  C   UNL     1      33.694  72.977  33.403  1.00  0.00     0.309 C 
HETATM  129  C   UNL     1      32.293  71.341  34.389  1.00  0.00     0.309 C 
ENDBRANCH 126 127
ENDBRANCH 125 126
ENDBRANCH 123 125
ENDBRANCH 121 123
BRANCH 121 130
HETATM  130  C   UNL     1      34.048  69.411  28.431  1.00  0.00     0.033 C 
BRANCH 130 131
HETATM  131  C   UNL     1      35.636  69.296  28.940  1.00  0.00     0.019 C 
HETATM  132  C   UNL     1      36.521  68.959  27.727  1.00  0.00     0.023 C 
BRANCH 131 133
HETATM  133  C   UNL     1      36.285  70.530  29.630  1.00  0.00     0.137 C 
HETATM  134  O   UNL     1      36.316  70.595  30.865  1.00  0.00    -0.297 OA
BRANCH 133 135
HETATM  135  C   UNL     1      36.899  71.660  28.840  1.00  0.00     0.109 C 
BRANCH 135 136
HETATM  136  C   UNL     1      38.113  72.326  29.511  1.00  0.00     0.279 C 
BRANCH 136 137
HETATM  137  N   UNL     1      37.825  73.719  29.917  1.00  0.00     0.080 N 
HETATM  138  C   UNL     1      37.594  73.787  31.364  1.00  0.00     0.309 C 
HETATM  139  C   UNL     1      36.656  74.254  29.216  1.00  0.00     0.309 C 
ENDBRANCH 136 137
ENDBRANCH 135 136
ENDBRANCH 133 135
ENDBRANCH 131 133
BRANCH 131 140
HETATM  140  C   UNL     1      35.709  68.078  29.988  1.00  0.00     0.033 C 
BRANCH 140 141
HETATM  141  C   UNL     1      35.969  66.472  29.742  1.00  0.00     0.019 C 
HETATM  142  C   UNL     1      34.761  66.010  28.881  1.00  0.00     0.023 C 
BRANCH 141 143
HETATM  143  C   UNL     1      37.301  66.021  29.040  1.00  0.00     0.033 C 
BRANCH 143 144
HETATM  144  C   UNL     1      38.777  66.352  29.503  1.00  0.00     0.014 C 
HETATM  145  C   UNL     1      38.650  67.272  30.750  1.00  0.00     0.023 C 
HETATM  146  C   UNL     1      39.595  67.188  28.496  1.00  0.00     0.023 C 
BRANCH 144 147
HETATM  147  C   UNL     1      39.598  65.083  29.850  1.00  0.00     0.136 C 
HETATM  148  O   UNL     1      40.240  64.504  28.969  1.00  0.00    -0.297 OA
BRANCH 147 149
HETATM  149  C   UNL     1      39.544  64.483  31.254  1.00  0.00     0.109 C 
BRANCH 149 150
HETATM  150  C   UNL     1      40.954  64.128  31.755  1.00  0.00     0.279 C 
BRANCH 150 151
HETATM  151  N   UNL     1      41.027  62.779  32.357  1.00  0.00     0.080 N 
HETATM  152  C   UNL     1      41.321  61.747  31.362  1.00  0.00     0.309 C 
HETATM  153  C   UNL     1      42.056  62.746  33.403  1.00  0.00     0.309 C 
ENDBRANCH 150 151
ENDBRANCH 149 150
ENDBRANCH 147 149
ENDBRANCH 144 147
ENDBRANCH 143 144
ENDBRANCH 141 143
BRANCH 141 154
HETATM  154  C   UNL     1      35.801  65.764  31.125  1.00  0.00     0.137 C 
HETATM  155  O   UNL     1      36.058  64.565  31.273  1.00  0.00    -0.297 OA
BRANCH 154 156
HETATM  156  C   UNL     1      35.125  66.520  32.248  1.00  0.00     0.109 C 
BRANCH 156 157
HETATM  157  C   UNL     1      34.131  65.670  33.041  1.00  0.00     0.279 C 
BRANCH 157 158
HETATM  158  N   UNL     1      32.855  66.407  33.162  1.00  0.00     0.080 N 
HETATM  159  C   UNL     1      31.778  65.545  33.641  1.00  0.00     0.309 C 
HETATM  160  C   UNL     1      32.475  67.011  31.883  1.00  0.00     0.309 C 
ENDBRANCH 157 158
ENDBRANCH 156 157
ENDBRANCH 154 156
ENDBRANCH 141 154
ENDBRANCH 140 141
ENDBRANCH 131 140
ENDBRANCH 130 131
ENDBRANCH 121 130
ENDBRANCH 120 121
ENDBRANCH 118 120
BRANCH 118 161
HETATM  161  C   UNL     1      29.588  69.437  26.673  1.00  0.00     0.139 C 
HETATM  162  O   UNL     1      29.114  70.458  26.157  1.00  0.00    -0.297 OA
BRANCH 161 163
HETATM  163  C   UNL     1      29.106  68.098  26.171  1.00  0.00     0.109 C 
BRANCH 163 164
HETATM  164  C   UNL     1      27.824  67.728  26.881  1.00  0.00     0.279 C 
BRANCH 164 165
HETATM  165  N   UNL     1      26.996  66.719  26.206  1.00  0.00     0.080 N 
HETATM  166  C   UNL     1      25.572  66.975  26.423  1.00  0.00     0.309 C 
HETATM  167  C   UNL     1      27.324  65.389  26.730  1.00  0.00     0.309 C 
ENDBRANCH 164 165
ENDBRANCH 163 164
ENDBRANCH 161 163
ENDBRANCH 118 161
ENDBRANCH 117 118
ENDBRANCH 116 117
ENDBRANCH  97 116
BRANCH  98 168
HETATM  168  O   UNL     1      26.581  71.001  29.815  1.00  0.00    -0.390 OA
HETATM  169  H   UNL     1      27.006  71.320  30.636  1.00  0.00     0.210 HD
ENDBRANCH  98 168
ENDBRANCH  92  93
ENDBRANCH   5  92
TORSDOF 88
ENDMDL
MODEL 2
REMARK VINA RESULT:      -5.6      2.595      7.068
REMARK WARNING: 32 MAX_TORS EXCEEDED!!!
REMARK  88 active torsions:
REMARK  status: ('A' for Active; 'I' for Inactive)
REMARK    1  A    between atoms: C_1  and  O_28 
REMARK    2  A    between atoms: C_2  and  C_6 
REMARK    3  A    between atoms: C_3  and  O_8 
REMARK    4  A    between atoms: C_4  and  O_10 
REMARK    5  A    between atoms: C_5  and  O_11 
REMARK    6  A    between atoms: C_6  and  O_58 
REMARK    7  A    between atoms: O_11  and  C_18 
REMARK    8  A    between atoms: O_13  and  C_16 
REMARK    9  A    between atoms: C_15  and  C_21 
REMARK   10  A    between atoms: O_17  and  C_20 
REMARK   11  A    between atoms: O_17  and  C_39 
REMARK   12  A    between atoms: O_19  and  C_22 
REMARK   13  A    between atoms: O_19  and  C_153 
REMARK   14  A    between atoms: C_21  and  O_60 
REMARK   15  A    between atoms: O_24  and  C_27 
REMARK   16  A    between atoms: C_26  and  C_32 
REMARK   17  A    between atoms: O_28  and  C_31 
REMARK   18  A    between atoms: C_29  and  O_49 
REMARK   19  A    between atoms: O_30  and  C_33 
REMARK   20  A    between atoms: C_32  and  O_56 
REMARK   21  A    between atoms: O_35  and  C_38 
REMARK   22  A    between atoms: C_37  and  C_42 
REMARK   23  A    between atoms: O_40  and  C_43 
REMARK   24  A    between atoms: C_42  and  O_62 
REMARK   25  A    between atoms: O_45  and  C_48 
REMARK   26  A    between atoms: C_47  and  C_53 
REMARK   27  A    between atoms: O_49  and  C_52 
REMARK   28  A    between atoms: O_51  and  C_54 
REMARK   29  A    between atoms: O_51  and  C_64 
REMARK   30  A    between atoms: C_53  and  O_55 
REMARK   31  A    between atoms: C_64  and  C_65 
REMARK   32  A    between atoms: C_65  and  C_66 
REMARK   33  A    between atoms: C_65  and  C_75 
REMARK   34  A    between atoms: C_66  and  C_67 
REMARK   35  A    between atoms: C_67  and  C_68 
REMARK   36  A    between atoms: C_67  and  C_79 
REMARK   37  A    between atoms: C_68  and  C_69 
REMARK   38  A    between atoms: C_69  and  C_70 
REMARK   39  A    between atoms: C_69  and  C_83 
REMARK   40  A    between atoms: C_70  and  C_71 
REMARK   41  A    between atoms: C_71  and  C_72 
REMARK   42  A    between atoms: C_71  and  C_87 
REMARK   43  A    between atoms: C_72  and  C_73 
REMARK   44  A    between atoms: C_73  and  C_91 
REMARK   45  A    between atoms: C_75  and  C_76 
REMARK   46  A    between atoms: C_76  and  C_77 
REMARK   47  A    between atoms: C_77  and  N_95 
REMARK   48  A    between atoms: C_79  and  C_80 
REMARK   49  A    between atoms: C_80  and  C_81 
REMARK   50  A    between atoms: C_81  and  N_96 
REMARK   51  A    between atoms: C_83  and  C_84 
REMARK   52  A    between atoms: C_84  and  C_85 
REMARK   53  A    between atoms: C_85  and  N_97 
REMARK   54  A    between atoms: C_87  and  C_88 
REMARK   55  A    between atoms: C_88  and  C_89 
REMARK   56  A    between atoms: C_89  and  N_98 
REMARK   57  A    between atoms: C_91  and  C_92 
REMARK   58  A    between atoms: C_92  and  C_93 
REMARK   59  A    between atoms: C_93  and  N_99 
REMARK   60  A    between atoms: N_118  and  C_121 
REMARK   61  A    between atoms: C_121  and  C_127 
REMARK   62  A    between atoms: C_122  and  C_127 
REMARK   63  A    between atoms: C_122  and  C_134 
REMARK   64  A    between atoms: N_124  and  C_131 
REMARK   65  A    between atoms: C_128  and  C_129 
REMARK   66  A    between atoms: C_128  and  C_138 
REMARK   67  A    between atoms: C_129  and  C_131 
REMARK   68  A    between atoms: N_133  and  C_144 
REMARK   69  A    between atoms: C_134  and  C_145 
REMARK   70  A    between atoms: C_134  and  C_151 
REMARK   71  A    between atoms: C_136  and  C_144 
REMARK   72  A    between atoms: C_136  and  C_148 
REMARK   73  A    between atoms: C_138  and  C_154 
REMARK   74  A    between atoms: C_138  and  C_145 
REMARK   75  A    between atoms: C_140  and  C_148 
REMARK   76  A    between atoms: C_140  and  C_141 
REMARK   77  A    between atoms: C_141  and  C_155 
REMARK   78  A    between atoms: C_142  and  C_153 
REMARK   79  A    between atoms: C_142  and  C_151 
REMARK   80  A    between atoms: C_142  and  C_152 
REMARK   81  A    between atoms: C_143  and  N_149 
REMARK   82  A    between atoms: C_143  and  C_146 
REMARK   83  A    between atoms: C_146  and  C_152 
REMARK   84  A    between atoms: C_154  and  C_155 
REMARK   85  A    between atoms: C_155  and  C_161 
REMARK   86  A    between atoms: C_158  and  C_163 
REMARK   87  A    between atoms: C_158  and  C_161 
REMARK   88  A    between atoms: N_159  and  C_163 
ROOT
HETATM    1  C   UNL     1      20.775  68.312  19.627  1.00  0.00     0.187 C 
HETATM    2  C   UNL     1      20.357  68.963  20.964  1.00  0.00     0.180 C 
HETATM    3  C   UNL     1      22.302  68.098  19.574  1.00  0.00     0.183 C 
HETATM    4  C   UNL     1      23.071  69.345  20.075  1.00  0.00     0.204 C 
HETATM    5  C   UNL     1      22.585  69.762  21.507  1.00  0.00     0.292 C 
HETATM    6  O   UNL     1      21.443  68.997  21.908  1.00  0.00    -0.348 OA
ENDROOT
BRANCH   1   7
HETATM    7  O   UNL     1      20.115  67.043  19.518  1.00  0.00    -0.348 OA
BRANCH   7   8
HETATM    8  C   UNL     1      20.034  66.511  18.188  1.00  0.00     0.292 C 
HETATM    9  O   UNL     1      19.111  67.332  17.478  1.00  0.00    -0.348 OA
HETATM   10  C   UNL     1      18.652  66.849  16.206  1.00  0.00     0.180 C 
HETATM   11  C   UNL     1      18.339  65.339  16.157  1.00  0.00     0.187 C 
HETATM   12  C   UNL     1      18.314  64.718  17.549  1.00  0.00     0.183 C 
HETATM   13  C   UNL     1      19.649  64.993  18.249  1.00  0.00     0.204 C 
BRANCH  10  14
HETATM   14  C   UNL     1      19.672  67.261  15.133  1.00  0.00     0.198 C 
BRANCH  14  15
HETATM   15  O   UNL     1      19.207  66.894  13.834  1.00  0.00    -0.398 OA
HETATM   16  H   UNL     1      19.716  67.428  13.193  1.00  0.00     0.209 HD
ENDBRANCH  14  15
ENDBRANCH  10  14
BRANCH  11  17
HETATM   17  O   UNL     1      17.034  65.136  15.593  1.00  0.00    -0.348 OA
BRANCH  17  18
HETATM   18  C   UNL     1      17.052  64.380  14.387  1.00  0.00     0.292 C 
HETATM   19  O   UNL     1      15.860  64.668  13.644  1.00  0.00    -0.351 OA
HETATM   20  C   UNL     1      15.982  64.310  12.253  1.00  0.00     0.150 C 
HETATM   21  C   UNL     1      16.840  63.041  12.085  1.00  0.00     0.068 C 
HETATM   22  C   UNL     1      16.671  62.139  13.318  1.00  0.00     0.154 C 
HETATM   23  C   UNL     1      17.177  62.822  14.633  1.00  0.00     0.205 C 
BRANCH  20  24
HETATM   24  C   UNL     1      16.432  65.518  11.417  1.00  0.00     0.196 C 
BRANCH  24  25
HETATM   25  O   UNL     1      17.789  65.393  11.001  1.00  0.00    -0.398 OA
HETATM   26  H   UNL     1      17.919  65.876  10.170  1.00  0.00     0.209 HD
ENDBRANCH  24  25
ENDBRANCH  20  24
BRANCH  22  27
HETATM   27  O   UNL     1      15.270  61.836  13.428  1.00  0.00    -0.393 OA
HETATM   28  H   UNL     1      15.062  61.169  12.743  1.00  0.00     0.210 HD
ENDBRANCH  22  27
BRANCH  23  29
HETATM   29  O   UNL     1      16.413  62.343  15.829  1.00  0.00    -0.377 OA
BRANCH  29  30
HETATM   30  C   UNL     1      16.967  61.200  16.603  1.00  0.00     0.185 C 
BRANCH  30  31
HETATM   31  C   UNL     1      16.252  60.926  18.024  1.00  0.00     0.039 C 
HETATM   32  C   UNL     1      15.276  59.749  17.874  1.00  0.00     0.025 C 
BRANCH  31  33
HETATM   33  C   UNL     1      15.500  62.241  18.608  1.00  0.00     0.036 C 
BRANCH  33  34
HETATM   34  C   UNL     1      14.524  62.265  19.914  1.00  0.00     0.019 C 
HETATM   35  C   UNL     1      13.236  62.948  19.379  1.00  0.00     0.023 C 
BRANCH  34  36
HETATM   36  C   UNL     1      15.211  63.174  21.069  1.00  0.00     0.033 C 
BRANCH  36  37
HETATM   37  C   UNL     1      14.488  64.129  22.189  1.00  0.00     0.019 C 
HETATM   38  C   UNL     1      14.193  65.508  21.577  1.00  0.00     0.023 C 
BRANCH  37  39
HETATM   39  C   UNL     1      15.562  64.290  23.369  1.00  0.00     0.033 C 
BRANCH  39  40
HETATM   40  C   UNL     1      17.165  64.564  23.312  1.00  0.00     0.019 C 
HETATM   41  C   UNL     1      17.511  65.142  24.711  1.00  0.00     0.023 C 
BRANCH  40  42
HETATM   42  C   UNL     1      18.104  63.349  23.006  1.00  0.00     0.033 C 
BRANCH  42  43
HETATM   43  C   UNL     1      18.133  61.967  23.766  1.00  0.00     0.014 C 
HETATM   44  C   UNL     1      18.519  60.896  22.709  1.00  0.00     0.023 C 
HETATM   45  C   UNL     1      16.764  61.503  24.301  1.00  0.00     0.023 C 
BRANCH  43  46
HETATM   46  C   UNL     1      19.141  61.962  24.942  1.00  0.00     0.136 C 
HETATM   47  O   UNL     1      18.881  61.335  25.974  1.00  0.00    -0.297 OA
BRANCH  46  48
HETATM   48  C   UNL     1      20.410  62.806  24.878  1.00  0.00     0.109 C 
BRANCH  48  49
HETATM   49  C   UNL     1      21.268  62.595  26.135  1.00  0.00     0.279 C 
BRANCH  49  50
HETATM   50  N   UNL     1      21.141  63.702  27.106  1.00  0.00     0.080 N 
HETATM   51  C   UNL     1      22.372  63.904  27.872  1.00  0.00     0.309 C 
HETATM   52  C   UNL     1      20.795  64.947  26.412  1.00  0.00     0.309 C 
ENDBRANCH  49  50
ENDBRANCH  48  49
ENDBRANCH  46  48
ENDBRANCH  43  46
ENDBRANCH  42  43
ENDBRANCH  40  42
BRANCH  40  53
HETATM   53  C   UNL     1      17.391  65.735  22.301  1.00  0.00     0.137 C 
HETATM   54  O   UNL     1      17.707  65.527  21.134  1.00  0.00    -0.297 OA
BRANCH  53  55
HETATM   55  C   UNL     1      17.413  67.152  22.837  1.00  0.00     0.109 C 
BRANCH  55  56
HETATM   56  C   UNL     1      16.853  68.172  21.845  1.00  0.00     0.279 C 
BRANCH  56  57
HETATM   57  N   UNL     1      16.515  69.416  22.570  1.00  0.00     0.080 N 
HETATM   58  C   UNL     1      15.073  69.671  22.530  1.00  0.00     0.309 C 
HETATM   59  C   UNL     1      16.973  69.368  23.955  1.00  0.00     0.309 C 
ENDBRANCH  56  57
ENDBRANCH  55  56
ENDBRANCH  53  55
ENDBRANCH  40  53
ENDBRANCH  39  40
ENDBRANCH  37  39
BRANCH  37  60
HETATM   60  C   UNL     1      13.154  63.628  22.807  1.00  0.00     0.137 C 
HETATM   61  O   UNL     1      12.085  64.134  22.447  1.00  0.00    -0.297 OA
BRANCH  60  62
HETATM   62  C   UNL     1      13.112  62.512  23.822  1.00  0.00     0.109 C 
BRANCH  62  63
HETATM   63  C   UNL     1      11.969  61.510  23.600  1.00  0.00     0.279 C 
BRANCH  63  64
HETATM   64  N   UNL     1      10.891  61.681  24.597  1.00  0.00     0.080 N 
HETATM   65  C   UNL     1       9.613  62.003  23.956  1.00  0.00     0.309 C 
HETATM   66  C   UNL     1      10.740  60.456  25.389  1.00  0.00     0.309 C 
ENDBRANCH  63  64
ENDBRANCH  62  63
ENDBRANCH  60  62
ENDBRANCH  37  60
ENDBRANCH  36  37
ENDBRANCH  34  36
BRANCH  34  67
HETATM   67  C   UNL     1      14.132  60.915  20.586  1.00  0.00     0.137 C 
HETATM   68  O   UNL     1      13.032  60.419  20.312  1.00  0.00    -0.297 OA
BRANCH  67  69
HETATM   69  C   UNL     1      15.043  60.200  21.595  1.00  0.00     0.109 C 
BRANCH  69  70
HETATM   70  C   UNL     1      14.381  58.945  22.214  1.00  0.00     0.279 C 
BRANCH  70  71
HETATM   71  N   UNL     1      15.051  57.633  22.094  1.00  0.00     0.080 N 
HETATM   72  C   UNL     1      15.055  57.114  20.737  1.00  0.00     0.309 C 
HETATM   73  C   UNL     1      16.446  57.760  22.543  1.00  0.00     0.309 C 
ENDBRANCH  70  71
ENDBRANCH  69  70
ENDBRANCH  67  69
ENDBRANCH  34  67
ENDBRANCH  33  34
ENDBRANCH  31  33
BRANCH  31  74
HETATM   74  C   UNL     1      17.445  60.657  18.975  1.00  0.00     0.139 C 
HETATM   75  O   UNL     1      18.165  61.588  19.360  1.00  0.00    -0.297 OA
BRANCH  74  76
HETATM   76  C   UNL     1      17.848  59.244  19.339  1.00  0.00     0.109 C 
BRANCH  76  77
HETATM   77  C   UNL     1      18.753  58.690  18.255  1.00  0.00     0.279 C 
BRANCH  77  78
HETATM   78  N   UNL     1      18.718  57.227  18.112  1.00  0.00     0.080 N 
HETATM   79  C   UNL     1      19.663  56.768  17.093  1.00  0.00     0.309 C 
HETATM   80  C   UNL     1      17.362  56.795  17.756  1.00  0.00     0.309 C 
ENDBRANCH  77  78
ENDBRANCH  76  77
ENDBRANCH  74  76
ENDBRANCH  31  74
ENDBRANCH  30  31
ENDBRANCH  29  30
ENDBRANCH  23  29
ENDBRANCH  17  18
ENDBRANCH  11  17
BRANCH  12  81
HETATM   81  O   UNL     1      17.207  65.220  18.309  1.00  0.00    -0.390 OA
HETATM   82  H   UNL     1      16.839  65.948  17.767  1.00  0.00     0.210 HD
ENDBRANCH  12  81
BRANCH  13  83
HETATM   83  O   UNL     1      19.646  64.381  19.594  1.00  0.00    -0.388 OA
HETATM   84  H   UNL     1      18.812  63.906  19.731  1.00  0.00     0.210 HD
ENDBRANCH  13  83
ENDBRANCH   7   8
ENDBRANCH   1   7
BRANCH   2  85
HETATM   85  C   UNL     1      19.733  70.351  20.729  1.00  0.00     0.198 C 
BRANCH  85  86
HETATM   86  O   UNL     1      19.432  71.006  21.954  1.00  0.00    -0.398 OA
HETATM   87  H   UNL     1      19.875  71.873  21.953  1.00  0.00     0.209 HD
ENDBRANCH  85  86
ENDBRANCH   2  85
BRANCH   3  88
HETATM   88  O   UNL     1      22.683  66.943  20.339  1.00  0.00    -0.390 OA
HETATM   89  H   UNL     1      22.010  66.253  20.164  1.00  0.00     0.210 HD
ENDBRANCH   3  88
BRANCH   4  90
HETATM   90  O   UNL     1      24.536  69.143  19.993  1.00  0.00    -0.388 OA
HETATM   91  H   UNL     1      24.738  68.519  19.279  1.00  0.00     0.210 HD
ENDBRANCH   4  90
BRANCH   5  92
HETATM   92  O   UNL     1      23.606  69.518  22.498  1.00  0.00    -0.348 OA
BRANCH  92  93
HETATM   93  C   UNL     1      23.374  70.080  23.822  1.00  0.00     0.187 C 
HETATM   94  C   UNL     1      22.702  69.042  24.738  1.00  0.00     0.180 C 
HETATM   95  O   UNL     1      23.435  68.796  25.938  1.00  0.00    -0.348 OA
HETATM   96  C   UNL     1      23.909  69.928  26.664  1.00  0.00     0.292 C 
HETATM   97  C   UNL     1      24.825  70.944  25.849  1.00  0.00     0.208 C 
HETATM   98  C   UNL     1      24.784  70.462  24.369  1.00  0.00     0.183 C 
BRANCH  94  99
HETATM   99  C   UNL     1      21.251  69.389  25.104  1.00  0.00     0.198 C 
BRANCH  99 100
HETATM  100  O   UNL     1      20.841  70.580  24.435  1.00  0.00    -0.398 OA
HETATM  101  H   UNL     1      19.864  70.615  24.462  1.00  0.00     0.209 HD
ENDBRANCH  99 100
ENDBRANCH  94  99
BRANCH  96 102
HETATM  102  O   UNL     1      24.653  69.345  27.732  1.00  0.00    -0.348 OA
BRANCH 102 103
HETATM  103  C   UNL     1      24.065  69.453  29.020  1.00  0.00     0.187 C 
HETATM  104  C   UNL     1      22.946  70.514  29.004  1.00  0.00     0.176 C 
HETATM  105  O   UNL     1      21.866  70.192  29.912  1.00  0.00    -0.378 OA
HETATM  106  C   UNL     1      22.302  69.550  31.114  1.00  0.00     0.202 C 
HETATM  107  C   UNL     1      22.905  68.156  30.831  1.00  0.00     0.173 C 
HETATM  108  C   UNL     1      23.463  68.085  29.392  1.00  0.00     0.180 C 
BRANCH 104 109
HETATM  109  C   UNL     1      23.454  71.927  29.318  1.00  0.00     0.198 C 
BRANCH 109 110
HETATM  110  O   UNL     1      22.659  72.893  28.630  1.00  0.00    -0.398 OA
HETATM  111  H   UNL     1      22.253  73.454  29.319  1.00  0.00     0.209 HD
ENDBRANCH 109 110
ENDBRANCH 104 109
BRANCH 107 112
HETATM  112  O   UNL     1      21.929  67.077  31.072  1.00  0.00    -0.391 OA
HETATM  113  H   UNL     1      21.632  66.712  30.223  1.00  0.00     0.210 HD
ENDBRANCH 107 112
BRANCH 108 114
HETATM  114  O   UNL     1      22.423  67.685  28.477  1.00  0.00    -0.390 OA
HETATM  115  H   UNL     1      21.759  67.185  28.986  1.00  0.00     0.210 HD
ENDBRANCH 108 114
ENDBRANCH 102 103
ENDBRANCH  96 102
BRANCH  97 116
HETATM  116  O   UNL     1      26.196  71.013  26.467  1.00  0.00    -0.369 OA
BRANCH 116 117
HETATM  117  C   UNL     1      26.639  71.909  27.544  1.00  0.00     0.168 C 
BRANCH 117 118
HETATM  118  C   UNL     1      28.056  71.711  28.272  1.00  0.00     0.046 C 
HETATM  119  C   UNL     1      29.040  72.607  27.503  1.00  0.00     0.026 C 
BRANCH 118 120
HETATM  120  C   UNL     1      28.698  70.216  28.493  1.00  0.00     0.036 C 
BRANCH 120 121
HETATM  121  C   UNL     1      29.788  69.522  27.445  1.00  0.00     0.019 C 
HETATM  122  C   UNL     1      30.220  68.269  28.255  1.00  0.00     0.023 C 
BRANCH 121 123
HETATM  123  C   UNL     1      29.279  69.080  26.038  1.00  0.00     0.137 C 
HETATM  124  O   UNL     1      29.355  69.893  25.108  1.00  0.00    -0.297 OA
BRANCH 123 125
HETATM  125  C   UNL     1      28.668  67.689  25.784  1.00  0.00     0.109 C 
BRANCH 125 126
HETATM  126  C   UNL     1      27.278  67.508  26.436  1.00  0.00     0.279 C 
BRANCH 126 127
HETATM  127  N   UNL     1      27.088  66.482  27.481  1.00  0.00     0.080 N 
HETATM  128  C   UNL     1      28.049  65.393  27.265  1.00  0.00     0.309 C 
HETATM  129  C   UNL     1      25.750  65.917  27.495  1.00  0.00     0.309 C 
ENDBRANCH 126 127
ENDBRANCH 125 126
ENDBRANCH 123 125
ENDBRANCH 121 123
BRANCH 121 130
HETATM  130  C   UNL     1      31.097  70.462  27.132  1.00  0.00     0.033 C 
BRANCH 130 131
HETATM  131  C   UNL     1      32.505  70.577  28.027  1.00  0.00     0.019 C 
HETATM  132  C   UNL     1      33.620  71.137  27.126  1.00  0.00     0.023 C 
BRANCH 131 133
HETATM  133  C   UNL     1      32.496  71.453  29.313  1.00  0.00     0.137 C 
HETATM  134  O   UNL     1      33.515  72.074  29.638  1.00  0.00    -0.297 OA
BRANCH 133 135
HETATM  135  C   UNL     1      31.271  71.587  30.184  1.00  0.00     0.109 C 
BRANCH 135 136
HETATM  136  C   UNL     1      31.233  70.634  31.390  1.00  0.00     0.279 C 
BRANCH 136 137
HETATM  137  N   UNL     1      31.130  71.367  32.671  1.00  0.00     0.080 N 
HETATM  138  C   UNL     1      32.421  71.972  33.015  1.00  0.00     0.309 C 
HETATM  139  C   UNL     1      30.704  70.487  33.762  1.00  0.00     0.309 C 
ENDBRANCH 136 137
ENDBRANCH 135 136
ENDBRANCH 133 135
ENDBRANCH 131 133
BRANCH 131 140
HETATM  140  C   UNL     1      32.903  69.085  28.476  1.00  0.00     0.033 C 
BRANCH 140 141
HETATM  141  C   UNL     1      34.324  68.486  29.049  1.00  0.00     0.019 C 
HETATM  142  C   UNL     1      34.304  66.985  28.649  1.00  0.00     0.023 C 
BRANCH 141 143
HETATM  143  C   UNL     1      35.670  69.130  28.553  1.00  0.00     0.033 C 
BRANCH 143 144
HETATM  144  C   UNL     1      37.134  68.605  28.840  1.00  0.00     0.014 C 
HETATM  145  C   UNL     1      37.661  68.018  27.501  1.00  0.00     0.023 C 
HETATM  146  C   UNL     1      37.211  67.423  29.829  1.00  0.00     0.023 C 
BRANCH 144 147
HETATM  147  C   UNL     1      38.084  69.720  29.352  1.00  0.00     0.136 C 
HETATM  148  O   UNL     1      37.739  70.439  30.293  1.00  0.00    -0.297 OA
BRANCH 147 149
HETATM  149  C   UNL     1      39.406  70.001  28.639  1.00  0.00     0.109 C 
BRANCH 149 150
HETATM  150  C   UNL     1      40.324  70.876  29.510  1.00  0.00     0.279 C 
BRANCH 150 151
HETATM  151  N   UNL     1      41.196  71.765  28.710  1.00  0.00     0.080 N 
HETATM  152  C   UNL     1      41.052  71.530  27.273  1.00  0.00     0.309 C 
HETATM  153  C   UNL     1      40.889  73.170  29.002  1.00  0.00     0.309 C 
ENDBRANCH 150 151
ENDBRANCH 149 150
ENDBRANCH 147 149
ENDBRANCH 144 147
ENDBRANCH 143 144
ENDBRANCH 141 143
BRANCH 141 154
HETATM  154  C   UNL     1      34.236  68.512  30.609  1.00  0.00     0.137 C 
HETATM  155  O   UNL     1      34.643  69.476  31.264  1.00  0.00    -0.297 OA
BRANCH 154 156
HETATM  156  C   UNL     1      33.822  67.248  31.331  1.00  0.00     0.109 C 
BRANCH 156 157
HETATM  157  C   UNL     1      32.811  67.493  32.453  1.00  0.00     0.279 C 
BRANCH 157 158
HETATM  158  N   UNL     1      31.749  66.467  32.379  1.00  0.00     0.080 N 
HETATM  159  C   UNL     1      30.457  67.053  32.034  1.00  0.00     0.309 C 
HETATM  160  C   UNL     1      31.640  65.732  33.641  1.00  0.00     0.309 C 
ENDBRANCH 157 158
ENDBRANCH 156 157
ENDBRANCH 154 156
ENDBRANCH 141 154
ENDBRANCH 140 141
ENDBRANCH 131 140
ENDBRANCH 130 131
ENDBRANCH 121 130
ENDBRANCH 120 121
ENDBRANCH 118 120
BRANCH 118 161
HETATM  161  C   UNL     1      27.666  72.181  29.703  1.00  0.00     0.139 C 
HETATM  162  O   UNL     1      27.671  71.400  30.664  1.00  0.00    -0.297 OA
BRANCH 161 163
HETATM  163  C   UNL     1      27.152  73.582  29.927  1.00  0.00     0.109 C 
BRANCH 163 164
HETATM  164  C   UNL     1      26.275  73.602  31.158  1.00  0.00     0.279 C 
BRANCH 164 165
HETATM  165  N   UNL     1      25.523  74.846  31.377  1.00  0.00     0.080 N 
HETATM  166  C   UNL     1      24.950  75.342  30.125  1.00  0.00     0.309 C 
HETATM  167  C   UNL     1      26.420  75.869  31.926  1.00  0.00     0.309 C 
ENDBRANCH 164 165
ENDBRANCH 163 164
ENDBRANCH 161 163
ENDBRANCH 118 161
ENDBRANCH 117 118
ENDBRANCH 116 117
ENDBRANCH  97 116
BRANCH  98 168
HETATM  168  O   UNL     1      25.656  69.319  24.223  1.00  0.00    -0.390 OA
HETATM  169  H   UNL     1      25.164  68.552  24.579  1.00  0.00     0.210 HD
ENDBRANCH  98 168
ENDBRANCH  92  93
ENDBRANCH   5  92
TORSDOF 88
ENDMDL
MODEL 3
REMARK VINA RESULT:      -5.6      1.858      3.615
REMARK WARNING: 32 MAX_TORS EXCEEDED!!!
REMARK  88 active torsions:
REMARK  status: ('A' for Active; 'I' for Inactive)
REMARK    1  A    between atoms: C_1  and  O_28 
REMARK    2  A    between atoms: C_2  and  C_6 
REMARK    3  A    between atoms: C_3  and  O_8 
REMARK    4  A    between atoms: C_4  and  O_10 
REMARK    5  A    between atoms: C_5  and  O_11 
REMARK    6  A    between atoms: C_6  and  O_58 
REMARK    7  A    between atoms: O_11  and  C_18 
REMARK    8  A    between atoms: O_13  and  C_16 
REMARK    9  A    between atoms: C_15  and  C_21 
REMARK   10  A    between atoms: O_17  and  C_20 
REMARK   11  A    between atoms: O_17  and  C_39 
REMARK   12  A    between atoms: O_19  and  C_22 
REMARK   13  A    between atoms: O_19  and  C_153 
REMARK   14  A    between atoms: C_21  and  O_60 
REMARK   15  A    between atoms: O_24  and  C_27 
REMARK   16  A    between atoms: C_26  and  C_32 
REMARK   17  A    between atoms: O_28  and  C_31 
REMARK   18  A    between atoms: C_29  and  O_49 
REMARK   19  A    between atoms: O_30  and  C_33 
REMARK   20  A    between atoms: C_32  and  O_56 
REMARK   21  A    between atoms: O_35  and  C_38 
REMARK   22  A    between atoms: C_37  and  C_42 
REMARK   23  A    between atoms: O_40  and  C_43 
REMARK   24  A    between atoms: C_42  and  O_62 
REMARK   25  A    between atoms: O_45  and  C_48 
REMARK   26  A    between atoms: C_47  and  C_53 
REMARK   27  A    between atoms: O_49  and  C_52 
REMARK   28  A    between atoms: O_51  and  C_54 
REMARK   29  A    between atoms: O_51  and  C_64 
REMARK   30  A    between atoms: C_53  and  O_55 
REMARK   31  A    between atoms: C_64  and  C_65 
REMARK   32  A    between atoms: C_65  and  C_66 
REMARK   33  A    between atoms: C_65  and  C_75 
REMARK   34  A    between atoms: C_66  and  C_67 
REMARK   35  A    between atoms: C_67  and  C_68 
REMARK   36  A    between atoms: C_67  and  C_79 
REMARK   37  A    between atoms: C_68  and  C_69 
REMARK   38  A    between atoms: C_69  and  C_70 
REMARK   39  A    between atoms: C_69  and  C_83 
REMARK   40  A    between atoms: C_70  and  C_71 
REMARK   41  A    between atoms: C_71  and  C_72 
REMARK   42  A    between atoms: C_71  and  C_87 
REMARK   43  A    between atoms: C_72  and  C_73 
REMARK   44  A    between atoms: C_73  and  C_91 
REMARK   45  A    between atoms: C_75  and  C_76 
REMARK   46  A    between atoms: C_76  and  C_77 
REMARK   47  A    between atoms: C_77  and  N_95 
REMARK   48  A    between atoms: C_79  and  C_80 
REMARK   49  A    between atoms: C_80  and  C_81 
REMARK   50  A    between atoms: C_81  and  N_96 
REMARK   51  A    between atoms: C_83  and  C_84 
REMARK   52  A    between atoms: C_84  and  C_85 
REMARK   53  A    between atoms: C_85  and  N_97 
REMARK   54  A    between atoms: C_87  and  C_88 
REMARK   55  A    between atoms: C_88  and  C_89 
REMARK   56  A    between atoms: C_89  and  N_98 
REMARK   57  A    between atoms: C_91  and  C_92 
REMARK   58  A    between atoms: C_92  and  C_93 
REMARK   59  A    between atoms: C_93  and  N_99 
REMARK   60  A    between atoms: N_118  and  C_121 
REMARK   61  A    between atoms: C_121  and  C_127 
REMARK   62  A    between atoms: C_122  and  C_127 
REMARK   63  A    between atoms: C_122  and  C_134 
REMARK   64  A    between atoms: N_124  and  C_131 
REMARK   65  A    between atoms: C_128  and  C_129 
REMARK   66  A    between atoms: C_128  and  C_138 
REMARK   67  A    between atoms: C_129  and  C_131 
REMARK   68  A    between atoms: N_133  and  C_144 
REMARK   69  A    between atoms: C_134  and  C_145 
REMARK   70  A    between atoms: C_134  and  C_151 
REMARK   71  A    between atoms: C_136  and  C_144 
REMARK   72  A    between atoms: C_136  and  C_148 
REMARK   73  A    between atoms: C_138  and  C_154 
REMARK   74  A    between atoms: C_138  and  C_145 
REMARK   75  A    between atoms: C_140  and  C_148 
REMARK   76  A    between atoms: C_140  and  C_141 
REMARK   77  A    between atoms: C_141  and  C_155 
REMARK   78  A    between atoms: C_142  and  C_153 
REMARK   79  A    between atoms: C_142  and  C_151 
REMARK   80  A    between atoms: C_142  and  C_152 
REMARK   81  A    between atoms: C_143  and  N_149 
REMARK   82  A    between atoms: C_143  and  C_146 
REMARK   83  A    between atoms: C_146  and  C_152 
REMARK   84  A    between atoms: C_154  and  C_155 
REMARK   85  A    between atoms: C_155  and  C_161 
REMARK   86  A    between atoms: C_158  and  C_163 
REMARK   87  A    between atoms: C_158  and  C_161 
REMARK   88  A    between atoms: N_159  and  C_163 
ROOT
HETATM    1  C   UNL     1      22.443  70.137  25.393  1.00  0.00     0.187 C 
HETATM    2  C   UNL     1      23.684  71.031  25.180  1.00  0.00     0.180 C 
HETATM    3  C   UNL     1      21.989  70.169  26.867  1.00  0.00     0.183 C 
HETATM    4  C   UNL     1      23.189  70.032  27.836  1.00  0.00     0.204 C 
HETATM    5  C   UNL     1      24.278  71.119  27.533  1.00  0.00     0.292 C 
HETATM    6  O   UNL     1      23.968  71.841  26.336  1.00  0.00    -0.348 OA
ENDROOT
BRANCH   1   7
HETATM    7  O   UNL     1      21.384  70.631  24.562  1.00  0.00    -0.348 OA
BRANCH   7   8
HETATM    8  C   UNL     1      20.478  69.632  24.071  1.00  0.00     0.292 C 
HETATM    9  O   UNL     1      21.219  68.827  23.158  1.00  0.00    -0.348 OA
HETATM   10  C   UNL     1      20.470  67.925  22.328  1.00  0.00     0.180 C 
HETATM   11  C   UNL     1      19.156  68.500  21.759  1.00  0.00     0.187 C 
HETATM   12  C   UNL     1      19.059  70.007  21.967  1.00  0.00     0.183 C 
HETATM   13  C   UNL     1      19.211  70.322  23.458  1.00  0.00     0.204 C 
BRANCH  10  14
HETATM   14  C   UNL     1      20.238  66.623  23.112  1.00  0.00     0.198 C 
BRANCH  14  15
HETATM   15  O   UNL     1      21.148  66.531  24.208  1.00  0.00    -0.398 OA
HETATM   16  H   UNL     1      21.013  65.651  24.611  1.00  0.00     0.209 HD
ENDBRANCH  14  15
ENDBRANCH  10  14
BRANCH  11  17
HETATM   17  O   UNL     1      19.107  68.276  20.341  1.00  0.00    -0.348 OA
BRANCH  17  18
HETATM   18  C   UNL     1      20.324  67.766  19.808  1.00  0.00     0.292 C 
HETATM   19  O   UNL     1      21.085  68.855  19.271  1.00  0.00    -0.351 OA
HETATM   20  C   UNL     1      22.479  68.524  19.112  1.00  0.00     0.150 C 
HETATM   21  C   UNL     1      22.649  67.047  18.708  1.00  0.00     0.068 C 
HETATM   22  C   UNL     1      21.434  66.595  17.883  1.00  0.00     0.154 C 
HETATM   23  C   UNL     1      20.099  66.660  18.698  1.00  0.00     0.205 C 
BRANCH  20  24
HETATM   24  C   UNL     1      23.287  68.962  20.343  1.00  0.00     0.196 C 
BRANCH  24  25
HETATM   25  O   UNL     1      22.843  70.220  20.842  1.00  0.00    -0.398 OA
HETATM   26  H   UNL     1      22.065  70.511  20.341  1.00  0.00     0.209 HD
ENDBRANCH  24  25
ENDBRANCH  20  24
BRANCH  22  27
HETATM   27  O   UNL     1      21.357  67.464  16.740  1.00  0.00    -0.393 OA
HETATM   28  H   UNL     1      22.247  67.496  16.336  1.00  0.00     0.210 HD
ENDBRANCH  22  27
BRANCH  23  29
HETATM   29  O   UNL     1      18.926  66.936  17.809  1.00  0.00    -0.377 OA
BRANCH  29  30
HETATM   30  C   UNL     1      18.481  65.860  16.882  1.00  0.00     0.185 C 
BRANCH  30  31
HETATM   31  C   UNL     1      16.883  65.754  16.677  1.00  0.00     0.039 C 
HETATM   32  C   UNL     1      16.181  66.543  17.793  1.00  0.00     0.025 C 
BRANCH  31  33
HETATM   33  C   UNL     1      16.361  64.217  16.628  1.00  0.00     0.036 C 
BRANCH  33  34
HETATM   34  C   UNL     1      16.984  62.984  17.492  1.00  0.00     0.019 C 
HETATM   35  C   UNL     1      18.340  62.710  16.788  1.00  0.00     0.023 C 
BRANCH  34  36
HETATM   36  C   UNL     1      16.004  61.697  17.357  1.00  0.00     0.033 C 
BRANCH  36  37
HETATM   37  C   UNL     1      16.053  60.481  16.256  1.00  0.00     0.019 C 
HETATM   38  C   UNL     1      14.818  59.582  16.428  1.00  0.00     0.023 C 
BRANCH  37  39
HETATM   39  C   UNL     1      17.374  59.643  16.607  1.00  0.00     0.033 C 
BRANCH  39  40
HETATM   40  C   UNL     1      17.763  58.784  17.934  1.00  0.00     0.019 C 
HETATM   41  C   UNL     1      18.952  59.559  18.564  1.00  0.00     0.023 C 
BRANCH  40  42
HETATM   42  C   UNL     1      16.652  58.568  19.016  1.00  0.00     0.033 C 
BRANCH  42  43
HETATM   43  C   UNL     1      16.821  58.703  20.578  1.00  0.00     0.014 C 
HETATM   44  C   UNL     1      15.490  59.303  21.111  1.00  0.00     0.023 C 
HETATM   45  C   UNL     1      17.900  59.711  21.019  1.00  0.00     0.023 C 
BRANCH  43  46
HETATM   46  C   UNL     1      17.118  57.345  21.259  1.00  0.00     0.136 C 
HETATM   47  O   UNL     1      16.405  56.365  21.018  1.00  0.00    -0.297 OA
BRANCH  46  48
HETATM   48  C   UNL     1      18.224  57.228  22.304  1.00  0.00     0.109 C 
BRANCH  48  49
HETATM   49  C   UNL     1      17.629  57.024  23.706  1.00  0.00     0.279 C 
BRANCH  49  50
HETATM   50  N   UNL     1      17.901  55.678  24.253  1.00  0.00     0.080 N 
HETATM   51  C   UNL     1      16.706  54.834  24.255  1.00  0.00     0.309 C 
HETATM   52  C   UNL     1      18.955  55.019  23.473  1.00  0.00     0.309 C 
ENDBRANCH  49  50
ENDBRANCH  48  49
ENDBRANCH  46  48
ENDBRANCH  43  46
ENDBRANCH  42  43
ENDBRANCH  40  42
BRANCH  40  53
HETATM   53  C   UNL     1      18.356  57.425  17.439  1.00  0.00     0.137 C 
HETATM   54  O   UNL     1      19.266  57.379  16.617  1.00  0.00    -0.297 OA
BRANCH  53  55
HETATM   55  C   UNL     1      17.651  56.145  17.840  1.00  0.00     0.109 C 
BRANCH  55  56
HETATM   56  C   UNL     1      16.945  55.462  16.668  1.00  0.00     0.279 C 
BRANCH  56  57
HETATM   57  N   UNL     1      15.623  56.092  16.467  1.00  0.00     0.080 N 
HETATM   58  C   UNL     1      15.046  55.699  15.179  1.00  0.00     0.309 C 
HETATM   59  C   UNL     1      14.701  55.758  17.548  1.00  0.00     0.309 C 
ENDBRANCH  56  57
ENDBRANCH  55  56
ENDBRANCH  53  55
ENDBRANCH  40  53
ENDBRANCH  39  40
ENDBRANCH  37  39
BRANCH  37  60
HETATM   60  C   UNL     1      16.107  60.873  14.755  1.00  0.00     0.137 C 
HETATM   61  O   UNL     1      16.839  60.241  13.983  1.00  0.00    -0.297 OA
BRANCH  60  62
HETATM   62  C   UNL     1      15.265  61.990  14.189  1.00  0.00     0.109 C 
BRANCH  62  63
HETATM   63  C   UNL     1      13.999  61.510  13.464  1.00  0.00     0.279 C 
BRANCH  63  64
HETATM   64  N   UNL     1      13.954  61.989  12.066  1.00  0.00     0.080 N 
HETATM   65  C   UNL     1      13.261  61.037  11.195  1.00  0.00     0.309 C 
HETATM   66  C   UNL     1      13.274  63.287  12.001  1.00  0.00     0.309 C 
ENDBRANCH  63  64
ENDBRANCH  62  63
ENDBRANCH  60  62
ENDBRANCH  37  60
ENDBRANCH  36  37
ENDBRANCH  34  36
BRANCH  34  67
HETATM   67  C   UNL     1      17.242  63.186  19.016  1.00  0.00     0.137 C 
HETATM   68  O   UNL     1      18.353  63.595  19.374  1.00  0.00    -0.297 OA
BRANCH  67  69
HETATM   69  C   UNL     1      16.184  62.866  20.081  1.00  0.00     0.109 C 
BRANCH  69  70
HETATM   70  C   UNL     1      15.171  64.020  20.285  1.00  0.00     0.279 C 
BRANCH  70  71
HETATM   71  N   UNL     1      13.737  63.787  20.018  1.00  0.00     0.080 N 
HETATM   72  C   UNL     1      13.306  64.288  18.723  1.00  0.00     0.309 C 
HETATM   73  C   UNL     1      13.464  62.343  20.067  1.00  0.00     0.309 C 
ENDBRANCH  70  71
ENDBRANCH  69  70
ENDBRANCH  67  69
ENDBRANCH  34  67
ENDBRANCH  33  34
ENDBRANCH  31  33
BRANCH  31  74
HETATM   74  C   UNL     1      16.671  66.325  15.252  1.00  0.00     0.139 C 
HETATM   75  O   UNL     1      17.137  67.430  14.942  1.00  0.00    -0.297 OA
BRANCH  74  76
HETATM   76  C   UNL     1      15.776  65.621  14.256  1.00  0.00     0.109 C 
BRANCH  76  77
HETATM   77  C   UNL     1      14.422  66.307  14.232  1.00  0.00     0.279 C 
BRANCH  77  78
HETATM   78  N   UNL     1      14.104  66.996  12.973  1.00  0.00     0.080 N 
HETATM   79  C   UNL     1      15.049  66.636  11.915  1.00  0.00     0.309 C 
HETATM   80  C   UNL     1      14.127  68.448  13.180  1.00  0.00     0.309 C 
ENDBRANCH  77  78
ENDBRANCH  76  77
ENDBRANCH  74  76
ENDBRANCH  31  74
ENDBRANCH  30  31
ENDBRANCH  29  30
ENDBRANCH  23  29
ENDBRANCH  17  18
ENDBRANCH  11  17
BRANCH  12  81
HETATM   81  O   UNL     1      20.041  70.692  21.179  1.00  0.00    -0.390 OA
HETATM   82  H   UNL     1      19.802  71.640  21.246  1.00  0.00     0.210 HD
ENDBRANCH  12  81
BRANCH  13  83
HETATM   83  O   UNL     1      19.101  71.779  23.676  1.00  0.00    -0.388 OA
HETATM   84  H   UNL     1      18.202  71.995  23.968  1.00  0.00     0.210 HD
ENDBRANCH  13  83
ENDBRANCH   7   8
ENDBRANCH   1   7
BRANCH   2  85
HETATM   85  C   UNL     1      24.896  70.193  24.732  1.00  0.00     0.198 C 
BRANCH  85  86
HETATM   86  O   UNL     1      24.820  69.855  23.354  1.00  0.00    -0.398 OA
HETATM   87  H   UNL     1      25.565  69.265  23.144  1.00  0.00     0.209 HD
ENDBRANCH  85  86
ENDBRANCH   2  85
BRANCH   3  88
HETATM   88  O   UNL     1      21.260  71.374  27.152  1.00  0.00    -0.390 OA
HETATM   89  H   UNL     1      20.439  71.105  27.614  1.00  0.00     0.210 HD
ENDBRANCH   3  88
BRANCH   4  90
HETATM   90  O   UNL     1      22.743  70.034  29.250  1.00  0.00    -0.388 OA
HETATM   91  H   UNL     1      21.801  70.260  29.292  1.00  0.00     0.210 HD
ENDBRANCH   4  90
BRANCH   5  92
HETATM   92  O   UNL     1      24.350  72.098  28.591  1.00  0.00    -0.348 OA
BRANCH  92  93
HETATM   93  C   UNL     1      25.558  72.912  28.642  1.00  0.00     0.187 C 
HETATM   94  C   UNL     1      25.615  73.707  29.959  1.00  0.00     0.180 C 
HETATM   95  O   UNL     1      26.807  73.466  30.707  1.00  0.00    -0.348 OA
HETATM   96  C   UNL     1      28.046  73.500  30.002  1.00  0.00     0.292 C 
HETATM   97  C   UNL     1      28.165  72.519  28.753  1.00  0.00     0.208 C 
HETATM   98  C   UNL     1      26.746  71.905  28.558  1.00  0.00     0.183 C 
BRANCH  94  99
HETATM   99  C   UNL     1      25.444  75.223  29.774  1.00  0.00     0.198 C 
BRANCH  99 100
HETATM  100  O   UNL     1      24.100  75.529  29.406  1.00  0.00    -0.398 OA
HETATM  101  H   UNL     1      24.014  75.379  28.444  1.00  0.00     0.209 HD
ENDBRANCH  99 100
ENDBRANCH  94  99
BRANCH  96 102
HETATM  102  O   UNL     1      29.001  73.143  30.999  1.00  0.00    -0.348 OA
BRANCH 102 103
HETATM  103  C   UNL     1      28.463  72.697  32.234  1.00  0.00     0.187 C 
HETATM  104  C   UNL     1      29.264  71.486  32.755  1.00  0.00     0.176 C 
HETATM  105  O   UNL     1      29.329  71.447  34.201  1.00  0.00    -0.378 OA
HETATM  106  C   UNL     1      28.135  71.913  34.838  1.00  0.00     0.202 C 
HETATM  107  C   UNL     1      27.896  73.416  34.572  1.00  0.00     0.173 C 
HETATM  108  C   UNL     1      28.566  73.850  33.250  1.00  0.00     0.180 C 
BRANCH 104 109
HETATM  109  C   UNL     1      28.726  70.144  32.244  1.00  0.00     0.198 C 
BRANCH 109 110
HETATM  110  O   UNL     1      29.794  69.205  32.124  1.00  0.00    -0.398 OA
HETATM  111  H   UNL     1      29.622  68.509  32.787  1.00  0.00     0.209 HD
ENDBRANCH 109 110
ENDBRANCH 104 109
BRANCH 107 112
HETATM  112  O   UNL     1      28.357  74.252  35.697  1.00  0.00    -0.391 OA
HETATM  113  H   UNL     1      28.806  73.695  36.352  1.00  0.00     0.210 HD
ENDBRANCH 107 112
BRANCH 108 114
HETATM  114  O   UNL     1      29.933  74.237  33.492  1.00  0.00    -0.390 OA
HETATM  115  H   UNL     1      30.252  73.730  34.261  1.00  0.00     0.210 HD
ENDBRANCH 108 114
ENDBRANCH 102 103
ENDBRANCH  96 102
BRANCH  97 116
HETATM  116  O   UNL     1      29.271  71.524  28.980  1.00  0.00    -0.369 OA
BRANCH 116 117
HETATM  117  C   UNL     1      29.231  70.079  28.718  1.00  0.00     0.168 C 
BRANCH 117 118
HETATM  118  C   UNL     1      30.312  69.367  27.768  1.00  0.00     0.046 C 
HETATM  119  C   UNL     1      30.611  68.013  28.431  1.00  0.00     0.026 C 
BRANCH 118 120
HETATM  120  C   UNL     1      31.710  70.123  27.355  1.00  0.00     0.036 C 
BRANCH 120 121
HETATM  121  C   UNL     1      32.923  70.464  28.443  1.00  0.00     0.019 C 
HETATM  122  C   UNL     1      33.722  71.546  27.665  1.00  0.00     0.023 C 
BRANCH 121 123
HETATM  123  C   UNL     1      32.522  71.022  29.843  1.00  0.00     0.137 C 
HETATM  124  O   UNL     1      32.187  70.215  30.719  1.00  0.00    -0.297 OA
BRANCH 123 125
HETATM  125  C   UNL     1      32.505  72.531  30.153  1.00  0.00     0.109 C 
BRANCH 125 126
HETATM  126  C   UNL     1      32.534  72.840  31.668  1.00  0.00     0.279 C 
BRANCH 126 127
HETATM  127  N   UNL     1      33.755  73.408  32.275  1.00  0.00     0.080 N 
HETATM  128  C   UNL     1      33.405  74.040  33.554  1.00  0.00     0.309 C 
HETATM  129  C   UNL     1      34.407  74.399  31.437  1.00  0.00     0.309 C 
ENDBRANCH 126 127
ENDBRANCH 125 126
ENDBRANCH 123 125
ENDBRANCH 121 123
BRANCH 121 130
HETATM  130  C   UNL     1      33.896  69.183  28.774  1.00  0.00     0.033 C 
BRANCH 130 131
HETATM  131  C   UNL     1      35.528  69.213  29.139  1.00  0.00     0.019 C 
HETATM  132  C   UNL     1      36.329  69.028  27.838  1.00  0.00     0.023 C 
BRANCH 131 133
HETATM  133  C   UNL     1      36.108  70.476  29.837  1.00  0.00     0.137 C 
HETATM  134  O   UNL     1      35.624  70.859  30.910  1.00  0.00    -0.297 OA
BRANCH 133 135
HETATM  135  C   UNL     1      37.263  71.256  29.257  1.00  0.00     0.109 C 
BRANCH 135 136
HETATM  136  C   UNL     1      36.932  72.711  28.885  1.00  0.00     0.279 C 
BRANCH 136 137
HETATM  137  N   UNL     1      37.569  73.677  29.807  1.00  0.00     0.080 N 
HETATM  138  C   UNL     1      37.297  75.050  29.370  1.00  0.00     0.309 C 
HETATM  139  C   UNL     1      39.017  73.473  29.884  1.00  0.00     0.309 C 
ENDBRANCH 136 137
ENDBRANCH 135 136
ENDBRANCH 133 135
ENDBRANCH 131 133
BRANCH 131 140
HETATM  140  C   UNL     1      35.819  67.963  30.108  1.00  0.00     0.033 C 
BRANCH 140 141
HETATM  141  C   UNL     1      36.305  66.432  29.757  1.00  0.00     0.019 C 
HETATM  142  C   UNL     1      35.107  65.808  28.990  1.00  0.00     0.023 C 
BRANCH 141 143
HETATM  143  C   UNL     1      37.615  66.230  28.910  1.00  0.00     0.033 C 
BRANCH 143 144
HETATM  144  C   UNL     1      39.058  66.782  29.249  1.00  0.00     0.014 C 
HETATM  145  C   UNL     1      38.925  67.569  30.583  1.00  0.00     0.023 C 
HETATM  146  C   UNL     1      39.600  67.823  28.247  1.00  0.00     0.023 C 
BRANCH 144 147
HETATM  147  C   UNL     1      40.116  65.657  29.390  1.00  0.00     0.136 C 
HETATM  148  O   UNL     1      40.361  64.918  28.432  1.00  0.00    -0.297 OA
BRANCH 147 149
HETATM  149  C   UNL     1      40.791  65.389  30.734  1.00  0.00     0.109 C 
BRANCH 149 150
HETATM  150  C   UNL     1      41.848  64.279  30.606  1.00  0.00     0.279 C 
BRANCH 150 151
HETATM  151  N   UNL     1      41.771  63.285  31.699  1.00  0.00     0.080 N 
HETATM  152  C   UNL     1      41.374  61.963  31.214  1.00  0.00     0.309 C 
HETATM  153  C   UNL     1      43.068  63.179  32.380  1.00  0.00     0.309 C 
ENDBRANCH 150 151
ENDBRANCH 149 150
ENDBRANCH 147 149
ENDBRANCH 144 147
ENDBRANCH 143 144
ENDBRANCH 141 143
BRANCH 141 154
HETATM  154  C   UNL     1      36.393  65.657  31.111  1.00  0.00     0.137 C 
HETATM  155  O   UNL     1      36.946  64.556  31.192  1.00  0.00    -0.297 OA
BRANCH 154 156
HETATM  156  C   UNL     1      35.613  66.183  32.297  1.00  0.00     0.109 C 
BRANCH 156 157
HETATM  157  C   UNL     1      34.324  65.405  32.569  1.00  0.00     0.279 C 
BRANCH 157 158
HETATM  158  N   UNL     1      34.476  64.644  33.828  1.00  0.00     0.080 N 
HETATM  159  C   UNL     1      35.560  65.174  34.649  1.00  0.00     0.309 C 
HETATM  160  C   UNL     1      34.707  63.223  33.557  1.00  0.00     0.309 C 
ENDBRANCH 157 158
ENDBRANCH 156 157
ENDBRANCH 154 156
ENDBRANCH 141 154
ENDBRANCH 140 141
ENDBRANCH 131 140
ENDBRANCH 130 131
ENDBRANCH 121 130
ENDBRANCH 120 121
ENDBRANCH 118 120
BRANCH 118 161
HETATM  161  C   UNL     1      29.491  69.325  26.447  1.00  0.00     0.139 C 
HETATM  162  O   UNL     1      29.214  70.358  25.824  1.00  0.00    -0.297 OA
BRANCH 161 163
HETATM  163  C   UNL     1      28.904  68.022  25.962  1.00  0.00     0.109 C 
BRANCH 163 164
HETATM  164  C   UNL     1      27.416  68.012  26.231  1.00  0.00     0.279 C 
BRANCH 164 165
HETATM  165  N   UNL     1      26.732  66.742  25.950  1.00  0.00     0.080 N 
HETATM  166  C   UNL     1      25.464  66.654  26.676  1.00  0.00     0.309 C 
HETATM  167  C   UNL     1      27.590  65.625  26.359  1.00  0.00     0.309 C 
ENDBRANCH 164 165
ENDBRANCH 163 164
ENDBRANCH 161 163
ENDBRANCH 118 161
ENDBRANCH 117 118
ENDBRANCH 116 117
ENDBRANCH  97 116
BRANCH  98 168
HETATM  168  O   UNL     1      26.541  70.872  29.546  1.00  0.00    -0.390 OA
HETATM  169  H   UNL     1      26.093  70.136  29.084  1.00  0.00     0.210 HD
ENDBRANCH  98 168
ENDBRANCH  92  93
ENDBRANCH   5  92
TORSDOF 88
ENDMDL
MODEL 4
REMARK VINA RESULT:      -5.5      1.251      2.752
REMARK WARNING: 32 MAX_TORS EXCEEDED!!!
REMARK  88 active torsions:
REMARK  status: ('A' for Active; 'I' for Inactive)
REMARK    1  A    between atoms: C_1  and  O_28 
REMARK    2  A    between atoms: C_2  and  C_6 
REMARK    3  A    between atoms: C_3  and  O_8 
REMARK    4  A    between atoms: C_4  and  O_10 
REMARK    5  A    between atoms: C_5  and  O_11 
REMARK    6  A    between atoms: C_6  and  O_58 
REMARK    7  A    between atoms: O_11  and  C_18 
REMARK    8  A    between atoms: O_13  and  C_16 
REMARK    9  A    between atoms: C_15  and  C_21 
REMARK   10  A    between atoms: O_17  and  C_20 
REMARK   11  A    between atoms: O_17  and  C_39 
REMARK   12  A    between atoms: O_19  and  C_22 
REMARK   13  A    between atoms: O_19  and  C_153 
REMARK   14  A    between atoms: C_21  and  O_60 
REMARK   15  A    between atoms: O_24  and  C_27 
REMARK   16  A    between atoms: C_26  and  C_32 
REMARK   17  A    between atoms: O_28  and  C_31 
REMARK   18  A    between atoms: C_29  and  O_49 
REMARK   19  A    between atoms: O_30  and  C_33 
REMARK   20  A    between atoms: C_32  and  O_56 
REMARK   21  A    between atoms: O_35  and  C_38 
REMARK   22  A    between atoms: C_37  and  C_42 
REMARK   23  A    between atoms: O_40  and  C_43 
REMARK   24  A    between atoms: C_42  and  O_62 
REMARK   25  A    between atoms: O_45  and  C_48 
REMARK   26  A    between atoms: C_47  and  C_53 
REMARK   27  A    between atoms: O_49  and  C_52 
REMARK   28  A    between atoms: O_51  and  C_54 
REMARK   29  A    between atoms: O_51  and  C_64 
REMARK   30  A    between atoms: C_53  and  O_55 
REMARK   31  A    between atoms: C_64  and  C_65 
REMARK   32  A    between atoms: C_65  and  C_66 
REMARK   33  A    between atoms: C_65  and  C_75 
REMARK   34  A    between atoms: C_66  and  C_67 
REMARK   35  A    between atoms: C_67  and  C_68 
REMARK   36  A    between atoms: C_67  and  C_79 
REMARK   37  A    between atoms: C_68  and  C_69 
REMARK   38  A    between atoms: C_69  and  C_70 
REMARK   39  A    between atoms: C_69  and  C_83 
REMARK   40  A    between atoms: C_70  and  C_71 
REMARK   41  A    between atoms: C_71  and  C_72 
REMARK   42  A    between atoms: C_71  and  C_87 
REMARK   43  A    between atoms: C_72  and  C_73 
REMARK   44  A    between atoms: C_73  and  C_91 
REMARK   45  A    between atoms: C_75  and  C_76 
REMARK   46  A    between atoms: C_76  and  C_77 
REMARK   47  A    between atoms: C_77  and  N_95 
REMARK   48  A    between atoms: C_79  and  C_80 
REMARK   49  A    between atoms: C_80  and  C_81 
REMARK   50  A    between atoms: C_81  and  N_96 
REMARK   51  A    between atoms: C_83  and  C_84 
REMARK   52  A    between atoms: C_84  and  C_85 
REMARK   53  A    between atoms: C_85  and  N_97 
REMARK   54  A    between atoms: C_87  and  C_88 
REMARK   55  A    between atoms: C_88  and  C_89 
REMARK   56  A    between atoms: C_89  and  N_98 
REMARK   57  A    between atoms: C_91  and  C_92 
REMARK   58  A    between atoms: C_92  and  C_93 
REMARK   59  A    between atoms: C_93  and  N_99 
REMARK   60  A    between atoms: N_118  and  C_121 
REMARK   61  A    between atoms: C_121  and  C_127 
REMARK   62  A    between atoms: C_122  and  C_127 
REMARK   63  A    between atoms: C_122  and  C_134 
REMARK   64  A    between atoms: N_124  and  C_131 
REMARK   65  A    between atoms: C_128  and  C_129 
REMARK   66  A    between atoms: C_128  and  C_138 
REMARK   67  A    between atoms: C_129  and  C_131 
REMARK   68  A    between atoms: N_133  and  C_144 
REMARK   69  A    between atoms: C_134  and  C_145 
REMARK   70  A    between atoms: C_134  and  C_151 
REMARK   71  A    between atoms: C_136  and  C_144 
REMARK   72  A    between atoms: C_136  and  C_148 
REMARK   73  A    between atoms: C_138  and  C_154 
REMARK   74  A    between atoms: C_138  and  C_145 
REMARK   75  A    between atoms: C_140  and  C_148 
REMARK   76  A    between atoms: C_140  and  C_141 
REMARK   77  A    between atoms: C_141  and  C_155 
REMARK   78  A    between atoms: C_142  and  C_153 
REMARK   79  A    between atoms: C_142  and  C_151 
REMARK   80  A    between atoms: C_142  and  C_152 
REMARK   81  A    between atoms: C_143  and  N_149 
REMARK   82  A    between atoms: C_143  and  C_146 
REMARK   83  A    between atoms: C_146  and  C_152 
REMARK   84  A    between atoms: C_154  and  C_155 
REMARK   85  A    between atoms: C_155  and  C_161 
REMARK   86  A    between atoms: C_158  and  C_163 
REMARK   87  A    between atoms: C_158  and  C_161 
REMARK   88  A    between atoms: N_159  and  C_163 
ROOT
HETATM    1  C   UNL     1      22.721  70.227  25.530  1.00  0.00     0.187 C 
HETATM    2  C   UNL     1      23.916  71.170  25.264  1.00  0.00     0.180 C 
HETATM    3  C   UNL     1      22.288  70.293  27.009  1.00  0.00     0.183 C 
HETATM    4  C   UNL     1      23.507  70.249  27.963  1.00  0.00     0.204 C 
HETATM    5  C   UNL     1      24.539  71.372  27.603  1.00  0.00     0.292 C 
HETATM    6  O   UNL     1      24.179  72.034  26.385  1.00  0.00    -0.348 OA
ENDROOT
BRANCH   1   7
HETATM    7  O   UNL     1      21.628  70.641  24.699  1.00  0.00    -0.348 OA
BRANCH   7   8
HETATM    8  C   UNL     1      20.793  69.578  24.218  1.00  0.00     0.292 C 
HETATM    9  O   UNL     1      21.593  68.805  23.327  1.00  0.00    -0.348 OA
HETATM   10  C   UNL     1      20.912  67.842  22.507  1.00  0.00     0.180 C 
HETATM   11  C   UNL     1      19.570  68.323  21.915  1.00  0.00     0.187 C 
HETATM   12  C   UNL     1      19.375  69.824  22.094  1.00  0.00     0.183 C 
HETATM   13  C   UNL     1      19.492  70.175  23.580  1.00  0.00     0.204 C 
BRANCH  10  14
HETATM   14  C   UNL     1      20.754  66.543  23.313  1.00  0.00     0.198 C 
BRANCH  14  15
HETATM   15  O   UNL     1      20.062  65.559  22.545  1.00  0.00    -0.398 OA
HETATM   16  H   UNL     1      19.125  65.833  22.517  1.00  0.00     0.209 HD
ENDBRANCH  14  15
ENDBRANCH  10  14
BRANCH  11  17
HETATM   17  O   UNL     1      19.550  68.071  20.501  1.00  0.00    -0.348 OA
BRANCH  17  18
HETATM   18  C   UNL     1      20.823  67.715  19.973  1.00  0.00     0.292 C 
HETATM   19  O   UNL     1      21.426  68.881  19.397  1.00  0.00    -0.351 OA
HETATM   20  C   UNL     1      22.851  68.738  19.236  1.00  0.00     0.150 C 
HETATM   21  C   UNL     1      23.221  67.287  18.876  1.00  0.00     0.068 C 
HETATM   22  C   UNL     1      22.075  66.647  18.076  1.00  0.00     0.154 C 
HETATM   23  C   UNL     1      20.747  66.555  18.900  1.00  0.00     0.205 C 
BRANCH  20  24
HETATM   24  C   UNL     1      23.597  69.322  20.445  1.00  0.00     0.196 C 
BRANCH  24  25
HETATM   25  O   UNL     1      23.156  70.643  20.747  1.00  0.00    -0.398 OA
HETATM   26  H   UNL     1      23.426  70.876  21.650  1.00  0.00     0.209 HD
ENDBRANCH  24  25
ENDBRANCH  20  24
BRANCH  22  27
HETATM   27  O   UNL     1      21.874  67.460  16.907  1.00  0.00    -0.393 OA
HETATM   28  H   UNL     1      22.065  66.902  16.127  1.00  0.00     0.210 HD
ENDBRANCH  22  27
BRANCH  23  29
HETATM   29  O   UNL     1      19.543  66.639  18.013  1.00  0.00    -0.377 OA
BRANCH  29  30
HETATM   30  C   UNL     1      19.179  65.440  17.211  1.00  0.00     0.185 C 
BRANCH  30  31
HETATM   31  C   UNL     1      17.688  65.461  16.590  1.00  0.00     0.039 C 
HETATM   32  C   UNL     1      17.049  66.830  16.871  1.00  0.00     0.025 C 
BRANCH  31  33
HETATM   33  C   UNL     1      16.760  64.254  17.153  1.00  0.00     0.036 C 
BRANCH  33  34
HETATM   34  C   UNL     1      16.870  63.597  18.640  1.00  0.00     0.019 C 
HETATM   35  C   UNL     1      17.782  62.361  18.413  1.00  0.00     0.023 C 
BRANCH  34  36
HETATM   36  C   UNL     1      15.393  63.131  19.122  1.00  0.00     0.033 C 
BRANCH  36  37
HETATM   37  C   UNL     1      14.980  61.893  20.116  1.00  0.00     0.019 C 
HETATM   38  C   UNL     1      14.289  62.449  21.372  1.00  0.00     0.023 C 
BRANCH  37  39
HETATM   39  C   UNL     1      16.366  61.203  20.534  1.00  0.00     0.033 C 
BRANCH  39  40
HETATM   40  C   UNL     1      16.683  60.040  21.627  1.00  0.00     0.019 C 
HETATM   41  C   UNL     1      18.154  60.299  22.055  1.00  0.00     0.023 C 
BRANCH  40  42
HETATM   42  C   UNL     1      15.777  59.968  22.902  1.00  0.00     0.033 C 
BRANCH  42  43
HETATM   43  C   UNL     1      16.145  59.301  24.282  1.00  0.00     0.014 C 
HETATM   44  C   UNL     1      17.412  58.438  24.026  1.00  0.00     0.023 C 
HETATM   45  C   UNL     1      15.098  58.299  24.807  1.00  0.00     0.023 C 
BRANCH  43  46
HETATM   46  C   UNL     1      16.414  60.348  25.391  1.00  0.00     0.136 C 
HETATM   47  O   UNL     1      16.351  60.018  26.579  1.00  0.00    -0.297 OA
BRANCH  46  48
HETATM   48  C   UNL     1      16.658  61.811  25.032  1.00  0.00     0.109 C 
BRANCH  48  49
HETATM   49  C   UNL     1      17.867  62.366  25.802  1.00  0.00     0.279 C 
BRANCH  49  50
HETATM   50  N   UNL     1      19.117  61.634  25.508  1.00  0.00     0.080 N 
HETATM   51  C   UNL     1      20.029  62.419  24.676  1.00  0.00     0.309 C 
HETATM   52  C   UNL     1      19.796  61.270  26.757  1.00  0.00     0.309 C 
ENDBRANCH  49  50
ENDBRANCH  48  49
ENDBRANCH  46  48
ENDBRANCH  43  46
ENDBRANCH  42  43
ENDBRANCH  40  42
BRANCH  40  53
HETATM   53  C   UNL     1      16.699  58.680  20.855  1.00  0.00     0.137 C 
HETATM   54  O   UNL     1      15.735  57.922  20.866  1.00  0.00    -0.297 OA
BRANCH  53  55
HETATM   55  C   UNL     1      18.007  58.213  20.250  1.00  0.00     0.109 C 
BRANCH  55  56
HETATM   56  C   UNL     1      17.889  57.872  18.764  1.00  0.00     0.279 C 
BRANCH  56  57
HETATM   57  N   UNL     1      18.640  56.628  18.494  1.00  0.00     0.080 N 
HETATM   58  C   UNL     1      18.476  55.668  19.588  1.00  0.00     0.309 C 
HETATM   59  C   UNL     1      18.228  56.018  17.233  1.00  0.00     0.309 C 
ENDBRANCH  56  57
ENDBRANCH  55  56
ENDBRANCH  53  55
ENDBRANCH  40  53
ENDBRANCH  39  40
ENDBRANCH  37  39
BRANCH  37  60
HETATM   60  C   UNL     1      14.040  60.797  19.546  1.00  0.00     0.137 C 
HETATM   61  O   UNL     1      13.294  60.173  20.309  1.00  0.00    -0.297 OA
BRANCH  60  62
HETATM   62  C   UNL     1      13.980  60.482  18.071  1.00  0.00     0.109 C 
BRANCH  62  63
HETATM   63  C   UNL     1      14.619  59.138  17.694  1.00  0.00     0.279 C 
BRANCH  63  64
HETATM   64  N   UNL     1      15.011  59.099  16.269  1.00  0.00     0.080 N 
HETATM   65  C   UNL     1      13.949  59.622  15.406  1.00  0.00     0.309 C 
HETATM   66  C   UNL     1      16.233  59.884  16.062  1.00  0.00     0.309 C 
ENDBRANCH  63  64
ENDBRANCH  62  63
ENDBRANCH  60  62
ENDBRANCH  37  60
ENDBRANCH  36  37
ENDBRANCH  34  36
BRANCH  34  67
HETATM   67  C   UNL     1      17.467  64.452  19.799  1.00  0.00     0.137 C 
HETATM   68  O   UNL     1      18.475  64.033  20.379  1.00  0.00    -0.297 OA
BRANCH  67  69
HETATM   69  C   UNL     1      16.830  65.769  20.264  1.00  0.00     0.109 C 
BRANCH  69  70
HETATM   70  C   UNL     1      16.697  65.860  21.804  1.00  0.00     0.279 C 
BRANCH  70  71
HETATM   71  N   UNL     1      15.371  66.102  22.409  1.00  0.00     0.080 N 
HETATM   72  C   UNL     1      15.306  67.340  23.168  1.00  0.00     0.309 C 
HETATM   73  C   UNL     1      14.357  66.160  21.345  1.00  0.00     0.309 C 
ENDBRANCH  70  71
ENDBRANCH  69  70
ENDBRANCH  67  69
ENDBRANCH  34  67
ENDBRANCH  33  34
ENDBRANCH  31  33
BRANCH  31  74
HETATM   74  C   UNL     1      17.927  65.156  15.090  1.00  0.00     0.139 C 
HETATM   75  O   UNL     1      18.534  65.963  14.373  1.00  0.00    -0.297 OA
BRANCH  74  76
HETATM   76  C   UNL     1      17.305  63.943  14.433  1.00  0.00     0.109 C 
BRANCH  76  77
HETATM   77  C   UNL     1      17.039  64.251  12.971  1.00  0.00     0.279 C 
BRANCH  77  78
HETATM   78  N   UNL     1      16.279  63.217  12.253  1.00  0.00     0.080 N 
HETATM   79  C   UNL     1      15.203  63.805  11.455  1.00  0.00     0.309 C 
HETATM   80  C   UNL     1      15.715  62.260  13.211  1.00  0.00     0.309 C 
ENDBRANCH  77  78
ENDBRANCH  76  77
ENDBRANCH  74  76
ENDBRANCH  31  74
ENDBRANCH  30  31
ENDBRANCH  29  30
ENDBRANCH  23  29
ENDBRANCH  17  18
ENDBRANCH  11  17
BRANCH  12  81
HETATM   81  O   UNL     1      20.321  70.556  21.303  1.00  0.00    -0.390 OA
HETATM   82  H   UNL     1      20.104  71.498  21.459  1.00  0.00     0.210 HD
ENDBRANCH  12  81
BRANCH  13  83
HETATM   83  O   UNL     1      19.287  71.626  23.771  1.00  0.00    -0.388 OA
HETATM   84  H   UNL     1      18.676  71.958  23.095  1.00  0.00     0.210 HD
ENDBRANCH  13  83
ENDBRANCH   7   8
ENDBRANCH   1   7
BRANCH   2  85
HETATM   85  C   UNL     1      25.159  70.373  24.828  1.00  0.00     0.198 C 
BRANCH  85  86
HETATM   86  O   UNL     1      24.875  69.516  23.730  1.00  0.00    -0.398 OA
HETATM   87  H   UNL     1      24.040  69.051  23.915  1.00  0.00     0.209 HD
ENDBRANCH  85  86
ENDBRANCH   2  85
BRANCH   3  88
HETATM   88  O   UNL     1      21.508  71.473  27.262  1.00  0.00    -0.390 OA
HETATM   89  H   UNL     1      21.047  71.692  26.425  1.00  0.00     0.210 HD
ENDBRANCH   3  88
BRANCH   4  90
HETATM   90  O   UNL     1      23.082  70.282  29.383  1.00  0.00    -0.388 OA
HETATM   91  H   UNL     1      22.427  69.586  29.541  1.00  0.00     0.210 HD
ENDBRANCH   4  90
BRANCH   5  92
HETATM   92  O   UNL     1      24.581  72.393  28.623  1.00  0.00    -0.348 OA
BRANCH  92  93
HETATM   93  C   UNL     1      25.832  73.128  28.757  1.00  0.00     0.187 C 
HETATM   94  C   UNL     1      25.846  73.933  30.069  1.00  0.00     0.180 C 
HETATM   95  O   UNL     1      26.961  73.623  30.904  1.00  0.00    -0.348 OA
HETATM   96  C   UNL     1      28.248  73.569  30.292  1.00  0.00     0.292 C 
HETATM   97  C   UNL     1      28.393  72.567  29.062  1.00  0.00     0.208 C 
HETATM   98  C   UNL     1      26.956  72.045  28.768  1.00  0.00     0.183 C 
BRANCH  94  99
HETATM   99  C   UNL     1      25.788  75.453  29.861  1.00  0.00     0.198 C 
BRANCH  99 100
HETATM  100  O   UNL     1      26.411  75.810  28.627  1.00  0.00    -0.398 OA
HETATM  101  H   UNL     1      25.728  76.211  28.055  1.00  0.00     0.209 HD
ENDBRANCH  99 100
ENDBRANCH  94  99
BRANCH  96 102
HETATM  102  O   UNL     1      29.103  73.163  31.359  1.00  0.00    -0.348 OA
BRANCH 102 103
HETATM  103  C   UNL     1      28.522  73.185  32.654  1.00  0.00     0.187 C 
HETATM  104  C   UNL     1      28.927  71.919  33.437  1.00  0.00     0.176 C 
HETATM  105  O   UNL     1      29.057  72.167  34.858  1.00  0.00    -0.378 OA
HETATM  106  C   UNL     1      28.112  73.116  35.361  1.00  0.00     0.202 C 
HETATM  107  C   UNL     1      28.347  74.524  34.771  1.00  0.00     0.173 C 
HETATM  108  C   UNL     1      29.043  74.430  33.395  1.00  0.00     0.180 C 
BRANCH 104 109
HETATM  109  C   UNL     1      27.962  70.746  33.224  1.00  0.00     0.198 C 
BRANCH 109 110
HETATM  110  O   UNL     1      28.081  70.254  31.890  1.00  0.00    -0.398 OA
HETATM  111  H   UNL     1      28.869  70.687  31.508  1.00  0.00     0.209 HD
ENDBRANCH 109 110
ENDBRANCH 104 109
BRANCH 107 112
HETATM  112  O   UNL     1      29.112  75.385  35.692  1.00  0.00    -0.391 OA
HETATM  113  H   UNL     1      28.749  75.304  36.588  1.00  0.00     0.210 HD
ENDBRANCH 107 112
BRANCH 108 114
HETATM  114  O   UNL     1      30.474  74.398  33.566  1.00  0.00    -0.390 OA
HETATM  115  H   UNL     1      30.745  73.463  33.616  1.00  0.00     0.210 HD
ENDBRANCH 108 114
ENDBRANCH 102 103
ENDBRANCH  96 102
BRANCH  97 116
HETATM  116  O   UNL     1      29.412  71.506  29.377  1.00  0.00    -0.369 OA
BRANCH 116 117
HETATM  117  C   UNL     1      29.469  70.142  28.832  1.00  0.00     0.168 C 
BRANCH 117 118
HETATM  118  C   UNL     1      30.570  69.718  27.743  1.00  0.00     0.046 C 
HETATM  119  C   UNL     1      31.160  68.393  28.252  1.00  0.00     0.026 C 
BRANCH 118 120
HETATM  120  C   UNL     1      31.771  70.746  27.302  1.00  0.00     0.036 C 
BRANCH 120 121
HETATM  121  C   UNL     1      33.166  70.957  28.184  1.00  0.00     0.019 C 
HETATM  122  C   UNL     1      33.969  71.901  27.246  1.00  0.00     0.023 C 
BRANCH 121 123
HETATM  123  C   UNL     1      33.054  71.604  29.599  1.00  0.00     0.137 C 
HETATM  124  O   UNL     1      33.491  72.751  29.753  1.00  0.00    -0.297 OA
BRANCH 123 125
HETATM  125  C   UNL     1      32.448  70.854  30.801  1.00  0.00     0.109 C 
BRANCH 125 126
HETATM  126  C   UNL     1      33.262  71.035  32.102  1.00  0.00     0.279 C 
BRANCH 126 127
HETATM  127  N   UNL     1      32.835  72.037  33.100  1.00  0.00     0.080 N 
HETATM  128  C   UNL     1      33.904  73.029  33.271  1.00  0.00     0.309 C 
HETATM  129  C   UNL     1      32.531  71.462  34.399  1.00  0.00     0.309 C 
ENDBRANCH 126 127
ENDBRANCH 125 126
ENDBRANCH 123 125
ENDBRANCH 121 123
BRANCH 121 130
HETATM  130  C   UNL     1      34.010  69.570  28.433  1.00  0.00     0.033 C 
BRANCH 130 131
HETATM  131  C   UNL     1      35.609  69.421  28.898  1.00  0.00     0.019 C 
HETATM  132  C   UNL     1      36.453  69.071  27.660  1.00  0.00     0.023 C 
BRANCH 131 133
HETATM  133  C   UNL     1      36.301  70.640  29.573  1.00  0.00     0.137 C 
HETATM  134  O   UNL     1      36.312  70.732  30.807  1.00  0.00    -0.297 OA
BRANCH 133 135
HETATM  135  C   UNL     1      36.981  71.723  28.771  1.00  0.00     0.109 C 
BRANCH 135 136
HETATM  136  C   UNL     1      38.396  72.085  29.253  1.00  0.00     0.279 C 
BRANCH 136 137
HETATM  137  N   UNL     1      39.348  70.969  29.063  1.00  0.00     0.080 N 
HETATM  138  C   UNL     1      40.130  70.755  30.285  1.00  0.00     0.309 C 
HETATM  139  C   UNL     1      40.260  71.224  27.945  1.00  0.00     0.309 C 
ENDBRANCH 136 137
ENDBRANCH 135 136
ENDBRANCH 133 135
ENDBRANCH 131 133
BRANCH 131 140
HETATM  140  C   UNL     1      35.687  68.198  29.940  1.00  0.00     0.033 C 
BRANCH 140 141
HETATM  141  C   UNL     1      35.936  66.593  29.685  1.00  0.00     0.019 C 
HETATM  142  C   UNL     1      34.689  66.128  28.883  1.00  0.00     0.023 C 
BRANCH 141 143
HETATM  143  C   UNL     1      37.233  66.142  28.920  1.00  0.00     0.033 C 
BRANCH 143 144
HETATM  144  C   UNL     1      38.729  66.478  29.309  1.00  0.00     0.014 C 
HETATM  145  C   UNL     1      38.666  67.292  30.632  1.00  0.00     0.023 C 
HETATM  146  C   UNL     1      39.455  67.416  28.321  1.00  0.00     0.023 C 
BRANCH 144 147
HETATM  147  C   UNL     1      39.603  65.210  29.496  1.00  0.00     0.136 C 
HETATM  148  O   UNL     1      40.288  64.791  28.559  1.00  0.00    -0.297 OA
BRANCH 147 149
HETATM  149  C   UNL     1      39.550  64.416  30.799  1.00  0.00     0.109 C 
BRANCH 149 150
HETATM  150  C   UNL     1      40.905  64.460  31.525  1.00  0.00     0.279 C 
BRANCH 150 151
HETATM  151  N   UNL     1      41.414  63.115  31.872  1.00  0.00     0.080 N 
HETATM  152  C   UNL     1      41.037  62.110  30.876  1.00  0.00     0.309 C 
HETATM  153  C   UNL     1      42.876  63.144  31.997  1.00  0.00     0.309 C 
ENDBRANCH 150 151
ENDBRANCH 149 150
ENDBRANCH 147 149
ENDBRANCH 144 147
ENDBRANCH 143 144
ENDBRANCH 141 143
BRANCH 141 154
HETATM  154  C   UNL     1      35.835  65.887  31.075  1.00  0.00     0.137 C 
HETATM  155  O   UNL     1      36.196  64.716  31.234  1.00  0.00    -0.297 OA
BRANCH 154 156
HETATM  156  C   UNL     1      35.100  66.593  32.194  1.00  0.00     0.109 C 
BRANCH 156 157
HETATM  157  C   UNL     1      33.948  65.773  32.777  1.00  0.00     0.279 C 
BRANCH 157 158
HETATM  158  N   UNL     1      32.755  66.638  32.901  1.00  0.00     0.080 N 
HETATM  159  C   UNL     1      31.600  65.894  33.396  1.00  0.00     0.309 C 
HETATM  160  C   UNL     1      32.428  67.267  31.620  1.00  0.00     0.309 C 
ENDBRANCH 157 158
ENDBRANCH 156 157
ENDBRANCH 154 156
ENDBRANCH 141 154
ENDBRANCH 140 141
ENDBRANCH 131 140
ENDBRANCH 130 131
ENDBRANCH 121 130
ENDBRANCH 120 121
ENDBRANCH 118 120
BRANCH 118 161
HETATM  161  C   UNL     1      29.654  69.631  26.488  1.00  0.00     0.139 C 
HETATM  162  O   UNL     1      29.074  70.629  26.040  1.00  0.00    -0.297 OA
BRANCH 161 163
HETATM  163  C   UNL     1      29.354  68.292  25.860  1.00  0.00     0.109 C 
BRANCH 163 164
HETATM  164  C   UNL     1      27.873  68.009  25.967  1.00  0.00     0.279 C 
BRANCH 164 165
HETATM  165  N   UNL     1      27.464  67.218  27.137  1.00  0.00     0.080 N 
HETATM  166  C   UNL     1      26.805  65.977  26.730  1.00  0.00     0.309 C 
HETATM  167  C   UNL     1      26.533  68.003  27.955  1.00  0.00     0.309 C 
ENDBRANCH 164 165
ENDBRANCH 163 164
ENDBRANCH 161 163
ENDBRANCH 118 161
ENDBRANCH 117 118
ENDBRANCH 116 117
ENDBRANCH  97 116
BRANCH  98 168
HETATM  168  O   UNL     1      26.611  71.038  29.745  1.00  0.00    -0.390 OA
HETATM  169  H   UNL     1      27.057  71.299  30.576  1.00  0.00     0.210 HD
ENDBRANCH  98 168
ENDBRANCH  92  93
ENDBRANCH   5  92
TORSDOF 88
ENDMDL
MODEL 5
REMARK VINA RESULT:      -5.5      5.863     12.487
REMARK WARNING: 32 MAX_TORS EXCEEDED!!!
REMARK  88 active torsions:
REMARK  status: ('A' for Active; 'I' for Inactive)
REMARK    1  A    between atoms: C_1  and  O_28 
REMARK    2  A    between atoms: C_2  and  C_6 
REMARK    3  A    between atoms: C_3  and  O_8 
REMARK    4  A    between atoms: C_4  and  O_10 
REMARK    5  A    between atoms: C_5  and  O_11 
REMARK    6  A    between atoms: C_6  and  O_58 
REMARK    7  A    between atoms: O_11  and  C_18 
REMARK    8  A    between atoms: O_13  and  C_16 
REMARK    9  A    between atoms: C_15  and  C_21 
REMARK   10  A    between atoms: O_17  and  C_20 
REMARK   11  A    between atoms: O_17  and  C_39 
REMARK   12  A    between atoms: O_19  and  C_22 
REMARK   13  A    between atoms: O_19  and  C_153 
REMARK   14  A    between atoms: C_21  and  O_60 
REMARK   15  A    between atoms: O_24  and  C_27 
REMARK   16  A    between atoms: C_26  and  C_32 
REMARK   17  A    between atoms: O_28  and  C_31 
REMARK   18  A    between atoms: C_29  and  O_49 
REMARK   19  A    between atoms: O_30  and  C_33 
REMARK   20  A    between atoms: C_32  and  O_56 
REMARK   21  A    between atoms: O_35  and  C_38 
REMARK   22  A    between atoms: C_37  and  C_42 
REMARK   23  A    between atoms: O_40  and  C_43 
REMARK   24  A    between atoms: C_42  and  O_62 
REMARK   25  A    between atoms: O_45  and  C_48 
REMARK   26  A    between atoms: C_47  and  C_53 
REMARK   27  A    between atoms: O_49  and  C_52 
REMARK   28  A    between atoms: O_51  and  C_54 
REMARK   29  A    between atoms: O_51  and  C_64 
REMARK   30  A    between atoms: C_53  and  O_55 
REMARK   31  A    between atoms: C_64  and  C_65 
REMARK   32  A    between atoms: C_65  and  C_66 
REMARK   33  A    between atoms: C_65  and  C_75 
REMARK   34  A    between atoms: C_66  and  C_67 
REMARK   35  A    between atoms: C_67  and  C_68 
REMARK   36  A    between atoms: C_67  and  C_79 
REMARK   37  A    between atoms: C_68  and  C_69 
REMARK   38  A    between atoms: C_69  and  C_70 
REMARK   39  A    between atoms: C_69  and  C_83 
REMARK   40  A    between atoms: C_70  and  C_71 
REMARK   41  A    between atoms: C_71  and  C_72 
REMARK   42  A    between atoms: C_71  and  C_87 
REMARK   43  A    between atoms: C_72  and  C_73 
REMARK   44  A    between atoms: C_73  and  C_91 
REMARK   45  A    between atoms: C_75  and  C_76 
REMARK   46  A    between atoms: C_76  and  C_77 
REMARK   47  A    between atoms: C_77  and  N_95 
REMARK   48  A    between atoms: C_79  and  C_80 
REMARK   49  A    between atoms: C_80  and  C_81 
REMARK   50  A    between atoms: C_81  and  N_96 
REMARK   51  A    between atoms: C_83  and  C_84 
REMARK   52  A    between atoms: C_84  and  C_85 
REMARK   53  A    between atoms: C_85  and  N_97 
REMARK   54  A    between atoms: C_87  and  C_88 
REMARK   55  A    between atoms: C_88  and  C_89 
REMARK   56  A    between atoms: C_89  and  N_98 
REMARK   57  A    between atoms: C_91  and  C_92 
REMARK   58  A    between atoms: C_92  and  C_93 
REMARK   59  A    between atoms: C_93  and  N_99 
REMARK   60  A    between atoms: N_118  and  C_121 
REMARK   61  A    between atoms: C_121  and  C_127 
REMARK   62  A    between atoms: C_122  and  C_127 
REMARK   63  A    between atoms: C_122  and  C_134 
REMARK   64  A    between atoms: N_124  and  C_131 
REMARK   65  A    between atoms: C_128  and  C_129 
REMARK   66  A    between atoms: C_128  and  C_138 
REMARK   67  A    between atoms: C_129  and  C_131 
REMARK   68  A    between atoms: N_133  and  C_144 
REMARK   69  A    between atoms: C_134  and  C_145 
REMARK   70  A    between atoms: C_134  and  C_151 
REMARK   71  A    between atoms: C_136  and  C_144 
REMARK   72  A    between atoms: C_136  and  C_148 
REMARK   73  A    between atoms: C_138  and  C_154 
REMARK   74  A    between atoms: C_138  and  C_145 
REMARK   75  A    between atoms: C_140  and  C_148 
REMARK   76  A    between atoms: C_140  and  C_141 
REMARK   77  A    between atoms: C_141  and  C_155 
REMARK   78  A    between atoms: C_142  and  C_153 
REMARK   79  A    between atoms: C_142  and  C_151 
REMARK   80  A    between atoms: C_142  and  C_152 
REMARK   81  A    between atoms: C_143  and  N_149 
REMARK   82  A    between atoms: C_143  and  C_146 
REMARK   83  A    between atoms: C_146  and  C_152 
REMARK   84  A    between atoms: C_154  and  C_155 
REMARK   85  A    between atoms: C_155  and  C_161 
REMARK   86  A    between atoms: C_158  and  C_163 
REMARK   87  A    between atoms: C_158  and  C_161 
REMARK   88  A    between atoms: N_159  and  C_163 
ROOT
HETATM    1  C   UNL     1      19.302  66.449  18.654  1.00  0.00     0.187 C 
HETATM    2  C   UNL     1      18.572  66.948  19.921  1.00  0.00     0.180 C 
HETATM    3  C   UNL     1      20.832  66.488  18.850  1.00  0.00     0.183 C 
HETATM    4  C   UNL     1      21.289  67.813  19.508  1.00  0.00     0.204 C 
HETATM    5  C   UNL     1      20.518  68.065  20.850  1.00  0.00     0.292 C 
HETATM    6  O   UNL     1      19.472  67.105  21.034  1.00  0.00    -0.348 OA
ENDROOT
BRANCH   1   7
HETATM    7  O   UNL     1      18.893  65.097  18.402  1.00  0.00    -0.348 OA
BRANCH   7   8
HETATM    8  C   UNL     1      18.660  64.779  17.022  1.00  0.00     0.292 C 
HETATM    9  O   UNL     1      17.667  65.690  16.558  1.00  0.00    -0.348 OA
HETATM   10  C   UNL     1      17.066  65.406  15.284  1.00  0.00     0.180 C 
HETATM   11  C   UNL     1      16.743  63.918  15.034  1.00  0.00     0.187 C 
HETATM   12  C   UNL     1      16.871  63.087  16.304  1.00  0.00     0.183 C 
HETATM   13  C   UNL     1      18.277  63.266  16.885  1.00  0.00     0.204 C 
BRANCH  10  14
HETATM   14  C   UNL     1      17.961  65.996  14.182  1.00  0.00     0.198 C 
BRANCH  14  15
HETATM   15  O   UNL     1      17.386  65.768  12.896  1.00  0.00    -0.398 OA
HETATM   16  H   UNL     1      16.901  66.583  12.658  1.00  0.00     0.209 HD
ENDBRANCH  14  15
ENDBRANCH  10  14
BRANCH  11  17
HETATM   17  O   UNL     1      15.381  63.790  14.593  1.00  0.00    -0.348 OA
BRANCH  17  18
HETATM   18  C   UNL     1      15.261  63.260  13.277  1.00  0.00     0.292 C 
HETATM   19  O   UNL     1      16.575  63.032  12.750  1.00  0.00    -0.351 OA
HETATM   20  C   UNL     1      16.567  62.116  11.638  1.00  0.00     0.150 C 
HETATM   21  C   UNL     1      15.295  62.296  10.787  1.00  0.00     0.068 C 
HETATM   22  C   UNL     1      14.834  63.761  10.854  1.00  0.00     0.154 C 
HETATM   23  C   UNL     1      14.439  64.199  12.304  1.00  0.00     0.205 C 
BRANCH  20  24
HETATM   24  C   UNL     1      16.837  60.680  12.112  1.00  0.00     0.196 C 
BRANCH  24  25
HETATM   25  O   UNL     1      17.637  60.659  13.292  1.00  0.00    -0.398 OA
HETATM   26  H   UNL     1      17.869  61.567  13.542  1.00  0.00     0.209 HD
ENDBRANCH  24  25
ENDBRANCH  20  24
BRANCH  22  27
HETATM   27  O   UNL     1      15.925  64.566  10.375  1.00  0.00    -0.393 OA
HETATM   28  H   UNL     1      16.163  64.237   9.486  1.00  0.00     0.210 HD
ENDBRANCH  22  27
BRANCH  23  29
HETATM   29  O   UNL     1      14.693  65.658  12.525  1.00  0.00    -0.377 OA
BRANCH  29  30
HETATM   30  C   UNL     1      13.556  66.508  12.969  1.00  0.00     0.185 C 
BRANCH  30  31
HETATM   31  C   UNL     1      13.878  68.088  13.059  1.00  0.00     0.039 C 
HETATM   32  C   UNL     1      12.577  68.876  12.849  1.00  0.00     0.025 C 
BRANCH  31  33
HETATM   33  C   UNL     1      15.021  68.553  12.004  1.00  0.00     0.036 C 
BRANCH  33  34
HETATM   34  C   UNL     1      14.815  68.694  10.394  1.00  0.00     0.019 C 
HETATM   35  C   UNL     1      16.270  68.759   9.856  1.00  0.00     0.023 C 
BRANCH  34  36
HETATM   36  C   UNL     1      14.032  70.080  10.082  1.00  0.00     0.033 C 
BRANCH  36  37
HETATM   37  C   UNL     1      13.931  70.907   8.668  1.00  0.00     0.019 C 
HETATM   38  C   UNL     1      13.524  69.946   7.539  1.00  0.00     0.023 C 
BRANCH  37  39
HETATM   39  C   UNL     1      15.410  71.458   8.390  1.00  0.00     0.033 C 
BRANCH  39  40
HETATM   40  C   UNL     1      16.387  71.270   7.102  1.00  0.00     0.019 C 
HETATM   41  C   UNL     1      17.823  71.375   7.684  1.00  0.00     0.023 C 
BRANCH  40  42
HETATM   42  C   UNL     1      16.257  69.948   6.273  1.00  0.00     0.033 C 
BRANCH  42  43
HETATM   43  C   UNL     1      17.017  69.597   4.937  1.00  0.00     0.014 C 
HETATM   44  C   UNL     1      16.972  68.050   4.802  1.00  0.00     0.023 C 
HETATM   45  C   UNL     1      18.520  69.938   4.947  1.00  0.00     0.023 C 
BRANCH  43  46
HETATM   46  C   UNL     1      16.375  70.271   3.699  1.00  0.00     0.136 C 
HETATM   47  O   UNL     1      17.002  71.128   3.069  1.00  0.00    -0.297 OA
BRANCH  46  48
HETATM   48  C   UNL     1      14.934  69.958   3.307  1.00  0.00     0.109 C 
BRANCH  48  49
HETATM   49  C   UNL     1      14.425  70.961   2.259  1.00  0.00     0.279 C 
BRANCH  49  50
HETATM   50  N   UNL     1      14.412  70.402   0.891  1.00  0.00     0.080 N 
HETATM   51  C   UNL     1      13.053  70.257   0.370  1.00  0.00     0.309 C 
HETATM   52  C   UNL     1      15.186  71.260  -0.013  1.00  0.00     0.309 C 
ENDBRANCH  49  50
ENDBRANCH  48  49
ENDBRANCH  46  48
ENDBRANCH  43  46
ENDBRANCH  42  43
ENDBRANCH  40  42
BRANCH  40  53
HETATM   53  C   UNL     1      16.201  72.535   6.201  1.00  0.00     0.137 C 
HETATM   54  O   UNL     1      17.103  73.350   6.040  1.00  0.00    -0.297 OA
BRANCH  53  55
HETATM   55  C   UNL     1      14.811  72.850   5.686  1.00  0.00     0.109 C 
BRANCH  55  56
HETATM   56  C   UNL     1      14.778  74.079   4.775  1.00  0.00     0.279 C 
BRANCH  56  57
HETATM   57  N   UNL     1      14.119  75.192   5.490  1.00  0.00     0.080 N 
HETATM   58  C   UNL     1      14.152  76.420   4.692  1.00  0.00     0.309 C 
HETATM   59  C   UNL     1      12.741  74.863   5.839  1.00  0.00     0.309 C 
ENDBRANCH  56  57
ENDBRANCH  55  56
ENDBRANCH  53  55
ENDBRANCH  40  53
ENDBRANCH  39  40
ENDBRANCH  37  39
BRANCH  37  60
HETATM   60  C   UNL     1      12.943  72.103   8.604  1.00  0.00     0.137 C 
HETATM   61  O   UNL     1      11.851  71.965   8.040  1.00  0.00    -0.297 OA
BRANCH  60  62
HETATM   62  C   UNL     1      13.258  73.435   9.239  1.00  0.00     0.109 C 
BRANCH  62  63
HETATM   63  C   UNL     1      12.020  74.194   9.742  1.00  0.00     0.279 C 
BRANCH  63  64
HETATM   64  N   UNL     1      12.357  75.121  10.843  1.00  0.00     0.080 N 
HETATM   65  C   UNL     1      11.529  76.328  10.799  1.00  0.00     0.309 C 
HETATM   66  C   UNL     1      12.173  74.453  12.136  1.00  0.00     0.309 C 
ENDBRANCH  63  64
ENDBRANCH  62  63
ENDBRANCH  60  62
ENDBRANCH  37  60
ENDBRANCH  36  37
ENDBRANCH  34  36
BRANCH  34  67
HETATM   67  C   UNL     1      14.050  67.571   9.631  1.00  0.00     0.137 C 
HETATM   68  O   UNL     1      14.705  66.759   8.967  1.00  0.00    -0.297 OA
BRANCH  67  69
HETATM   69  C   UNL     1      12.518  67.458   9.649  1.00  0.00     0.109 C 
BRANCH  69  70
HETATM   70  C   UNL     1      12.027  65.990   9.674  1.00  0.00     0.279 C 
BRANCH  70  71
HETATM   71  N   UNL     1      11.577  65.349   8.421  1.00  0.00     0.080 N 
HETATM   72  C   UNL     1      12.269  64.104   8.133  1.00  0.00     0.309 C 
HETATM   73  C   UNL     1      10.137  65.064   8.514  1.00  0.00     0.309 C 
ENDBRANCH  70  71
ENDBRANCH  69  70
ENDBRANCH  67  69
ENDBRANCH  34  67
ENDBRANCH  33  34
ENDBRANCH  31  33
BRANCH  31  74
HETATM   74  C   UNL     1      14.505  68.240  14.467  1.00  0.00     0.139 C 
HETATM   75  O   UNL     1      15.715  68.471  14.595  1.00  0.00    -0.297 OA
BRANCH  74  76
HETATM   76  C   UNL     1      13.693  67.972  15.715  1.00  0.00     0.109 C 
BRANCH  76  77
HETATM   77  C   UNL     1      13.710  69.209  16.595  1.00  0.00     0.279 C 
BRANCH  77  78
HETATM   78  N   UNL     1      12.673  70.202  16.282  1.00  0.00     0.080 N 
HETATM   79  C   UNL     1      13.264  71.472  15.856  1.00  0.00     0.309 C 
HETATM   80  C   UNL     1      11.825  70.424  17.458  1.00  0.00     0.309 C 
ENDBRANCH  77  78
ENDBRANCH  76  77
ENDBRANCH  74  76
ENDBRANCH  31  74
ENDBRANCH  30  31
ENDBRANCH  29  30
ENDBRANCH  23  29
ENDBRANCH  17  18
ENDBRANCH  11  17
BRANCH  12  81
HETATM   81  O   UNL     1      15.858  63.449  17.252  1.00  0.00    -0.390 OA
HETATM   82  H   UNL     1      15.453  64.263  16.889  1.00  0.00     0.210 HD
ENDBRANCH  12  81
BRANCH  13  83
HETATM   83  O   UNL     1      18.422  62.451  18.109  1.00  0.00    -0.388 OA
HETATM   84  H   UNL     1      18.185  62.985  18.883  1.00  0.00     0.210 HD
ENDBRANCH  13  83
ENDBRANCH   7   8
ENDBRANCH   1   7
BRANCH   2  85
HETATM   85  C   UNL     1      17.769  68.228  19.625  1.00  0.00     0.198 C 
BRANCH  85  86
HETATM   86  O   UNL     1      17.023  68.654  20.757  1.00  0.00    -0.398 OA
HETATM   87  H   UNL     1      16.455  67.916  21.043  1.00  0.00     0.209 HD
ENDBRANCH  85  86
ENDBRANCH   2  85
BRANCH   3  88
HETATM   88  O   UNL     1      21.276  65.370  19.636  1.00  0.00    -0.390 OA
HETATM   89  H   UNL     1      22.216  65.217  19.406  1.00  0.00     0.210 HD
ENDBRANCH   3  88
BRANCH   4  90
HETATM   90  O   UNL     1      22.762  67.856  19.666  1.00  0.00    -0.388 OA
HETATM   91  H   UNL     1      23.026  68.730  19.994  1.00  0.00     0.210 HD
ENDBRANCH   4  90
BRANCH   5  92
HETATM   92  O   UNL     1      21.394  67.936  21.990  1.00  0.00    -0.348 OA
BRANCH  92  93
HETATM   93  C   UNL     1      21.616  69.141  22.779  1.00  0.00     0.187 C 
HETATM   94  C   UNL     1      20.334  69.533  23.534  1.00  0.00     0.180 C 
HETATM   95  O   UNL     1      20.524  69.637  24.945  1.00  0.00    -0.348 OA
HETATM   96  C   UNL     1      21.664  70.361  25.404  1.00  0.00     0.292 C 
HETATM   97  C   UNL     1      23.074  69.862  24.857  1.00  0.00     0.208 C 
HETATM   98  C   UNL     1      22.754  68.780  23.783  1.00  0.00     0.183 C 
BRANCH  94  99
HETATM   99  C   UNL     1      19.689  70.831  23.024  1.00  0.00     0.198 C 
BRANCH  99 100
HETATM  100  O   UNL     1      19.806  70.919  21.605  1.00  0.00    -0.398 OA
HETATM  101  H   UNL     1      20.746  71.089  21.394  1.00  0.00     0.209 HD
ENDBRANCH  99 100
ENDBRANCH  94  99
BRANCH  96 102
HETATM  102  O   UNL     1      21.604  70.203  26.821  1.00  0.00    -0.348 OA
BRANCH 102 103
HETATM  103  C   UNL     1      20.417  69.608  27.323  1.00  0.00     0.187 C 
HETATM  104  C   UNL     1      20.734  68.783  28.587  1.00  0.00     0.176 C 
HETATM  105  O   UNL     1      19.642  68.789  29.539  1.00  0.00    -0.378 OA
HETATM  106  C   UNL     1      18.350  68.795  28.925  1.00  0.00     0.202 C 
HETATM  107  C   UNL     1      18.095  70.102  28.142  1.00  0.00     0.173 C 
HETATM  108  C   UNL     1      19.429  70.733  27.685  1.00  0.00     0.180 C 
BRANCH 104 109
HETATM  109  C   UNL     1      21.113  67.329  28.277  1.00  0.00     0.198 C 
BRANCH 109 110
HETATM  110  O   UNL     1      21.938  67.280  27.114  1.00  0.00    -0.398 OA
HETATM  111  H   UNL     1      22.344  66.391  27.104  1.00  0.00     0.209 HD
ENDBRANCH 109 110
ENDBRANCH 104 109
BRANCH 107 112
HETATM  112  O   UNL     1      17.297  71.064  28.925  1.00  0.00    -0.391 OA
HETATM  113  H   UNL     1      16.459  71.238  28.468  1.00  0.00     0.210 HD
ENDBRANCH 107 112
BRANCH 108 114
HETATM  114  O   UNL     1      19.947  71.597  28.716  1.00  0.00    -0.390 OA
HETATM  115  H   UNL     1      20.883  71.363  28.855  1.00  0.00     0.210 HD
ENDBRANCH 108 114
ENDBRANCH 102 103
ENDBRANCH  96 102
BRANCH  97 116
HETATM  116  O   UNL     1      23.939  69.401  25.999  1.00  0.00    -0.369 OA
BRANCH 116 117
HETATM  117  C   UNL     1      25.395  69.209  25.986  1.00  0.00     0.168 C 
BRANCH 117 118
HETATM  118  C   UNL     1      26.362  70.046  26.958  1.00  0.00     0.046 C 
HETATM  119  C   UNL     1      27.154  70.987  26.036  1.00  0.00     0.026 C 
BRANCH 118 120
HETATM  120  C   UNL     1      27.372  69.291  28.009  1.00  0.00     0.036 C 
BRANCH 120 121
HETATM  121  C   UNL     1      28.763  68.507  27.540  1.00  0.00     0.019 C 
HETATM  122  C   UNL     1      29.241  67.918  28.895  1.00  0.00     0.023 C 
BRANCH 121 123
HETATM  123  C   UNL     1      28.645  67.361  26.488  1.00  0.00     0.137 C 
HETATM  124  O   UNL     1      28.633  67.667  25.290  1.00  0.00    -0.297 OA
BRANCH 123 125
HETATM  125  C   UNL     1      28.516  65.880  26.896  1.00  0.00     0.109 C 
BRANCH 125 126
HETATM  126  C   UNL     1      27.065  65.353  26.815  1.00  0.00     0.279 C 
BRANCH 126 127
HETATM  127  N   UNL     1      26.266  65.215  28.050  1.00  0.00     0.080 N 
HETATM  128  C   UNL     1      25.220  66.246  28.063  1.00  0.00     0.309 C 
HETATM  129  C   UNL     1      27.055  65.348  29.263  1.00  0.00     0.309 C 
ENDBRANCH 126 127
ENDBRANCH 125 126
ENDBRANCH 123 125
ENDBRANCH 121 123
BRANCH 121 130
HETATM  130  C   UNL     1      29.914  69.507  26.929  1.00  0.00     0.033 C 
BRANCH 130 131
HETATM  131  C   UNL     1      30.726  70.732  27.728  1.00  0.00     0.019 C 
HETATM  132  C   UNL     1      31.712  71.392  26.748  1.00  0.00     0.023 C 
BRANCH 131 133
HETATM  133  C   UNL     1      29.893  71.884  28.359  1.00  0.00     0.137 C 
HETATM  134  O   UNL     1      29.609  72.878  27.679  1.00  0.00    -0.297 OA
BRANCH 133 135
HETATM  135  C   UNL     1      29.397  71.829  29.783  1.00  0.00     0.109 C 
BRANCH 135 136
HETATM  136  C   UNL     1      28.000  72.433  30.001  1.00  0.00     0.279 C 
BRANCH 136 137
HETATM  137  N   UNL     1      27.426  72.045  31.308  1.00  0.00     0.080 N 
HETATM  138  C   UNL     1      28.266  72.549  32.400  1.00  0.00     0.309 C 
HETATM  139  C   UNL     1      27.298  70.591  31.429  1.00  0.00     0.309 C 
ENDBRANCH 136 137
ENDBRANCH 135 136
ENDBRANCH 133 135
ENDBRANCH 131 133
BRANCH 131 140
HETATM  140  C   UNL     1      31.561  70.047  28.919  1.00  0.00     0.033 C 
BRANCH 140 141
HETATM  141  C   UNL     1      33.173  70.079  29.248  1.00  0.00     0.019 C 
HETATM  142  C   UNL     1      33.288  69.503  30.687  1.00  0.00     0.023 C 
BRANCH 141 143
HETATM  143  C   UNL     1      34.153  69.293  28.303  1.00  0.00     0.033 C 
BRANCH 143 144
HETATM  144  C   UNL     1      35.408  68.435  28.740  1.00  0.00     0.014 C 
HETATM  145  C   UNL     1      35.900  69.031  30.089  1.00  0.00     0.023 C 
HETATM  146  C   UNL     1      36.628  68.557  27.803  1.00  0.00     0.023 C 
BRANCH 144 147
HETATM  147  C   UNL     1      35.079  66.928  28.903  1.00  0.00     0.136 C 
HETATM  148  O   UNL     1      33.906  66.562  29.020  1.00  0.00    -0.297 OA
BRANCH 147 149
HETATM  149  C   UNL     1      36.200  65.897  29.019  1.00  0.00     0.109 C 
BRANCH 149 150
HETATM  150  C   UNL     1      36.693  65.781  30.471  1.00  0.00     0.279 C 
BRANCH 150 151
HETATM  151  N   UNL     1      35.603  65.481  31.425  1.00  0.00     0.080 N 
HETATM  152  C   UNL     1      35.601  64.076  31.835  1.00  0.00     0.309 C 
HETATM  153  C   UNL     1      35.724  66.330  32.616  1.00  0.00     0.309 C 
ENDBRANCH 150 151
ENDBRANCH 149 150
ENDBRANCH 147 149
ENDBRANCH 144 147
ENDBRANCH 143 144
ENDBRANCH 141 143
BRANCH 141 154
HETATM  154  C   UNL     1      33.588  71.581  29.357  1.00  0.00     0.137 C 
HETATM  155  O   UNL     1      32.974  72.372  30.080  1.00  0.00    -0.297 OA
BRANCH 154 156
HETATM  156  C   UNL     1      34.642  72.110  28.409  1.00  0.00     0.109 C 
BRANCH 156 157
HETATM  157  C   UNL     1      35.559  73.158  29.043  1.00  0.00     0.279 C 
BRANCH 157 158
HETATM  158  N   UNL     1      36.398  72.505  30.072  1.00  0.00     0.080 N 
HETATM  159  C   UNL     1      36.408  73.264  31.319  1.00  0.00     0.309 C 
HETATM  160  C   UNL     1      37.769  72.322  29.591  1.00  0.00     0.309 C 
ENDBRANCH 157 158
ENDBRANCH 156 157
ENDBRANCH 154 156
ENDBRANCH 141 154
ENDBRANCH 140 141
ENDBRANCH 131 140
ENDBRANCH 130 131
ENDBRANCH 121 130
ENDBRANCH 120 121
ENDBRANCH 118 120
BRANCH 118 161
HETATM  161  C   UNL     1      25.286  70.710  27.864  1.00  0.00     0.139 C 
HETATM  162  O   UNL     1      24.611  70.045  28.661  1.00  0.00    -0.297 OA
BRANCH 161 163
HETATM  163  C   UNL     1      24.954  72.173  27.700  1.00  0.00     0.109 C 
BRANCH 163 164
HETATM  164  C   UNL     1      23.531  72.418  28.147  1.00  0.00     0.279 C 
BRANCH 164 165
HETATM  165  N   UNL     1      23.379  73.290  29.321  1.00  0.00     0.080 N 
HETATM  166  C   UNL     1      24.651  73.922  29.676  1.00  0.00     0.309 C 
HETATM  167  C   UNL     1      22.911  72.495  30.461  1.00  0.00     0.309 C 
ENDBRANCH 164 165
ENDBRANCH 163 164
ENDBRANCH 161 163
ENDBRANCH 118 161
ENDBRANCH 117 118
ENDBRANCH 116 117
ENDBRANCH  97 116
BRANCH  98 168
HETATM  168  O   UNL     1      22.404  67.547  24.448  1.00  0.00    -0.390 OA
HETATM  169  H   UNL     1      21.485  67.658  24.766  1.00  0.00     0.210 HD
ENDBRANCH  98 168
ENDBRANCH  92  93
ENDBRANCH   5  92
TORSDOF 88
ENDMDL
MODEL 6
REMARK VINA RESULT:      -5.4      5.891     21.406
REMARK WARNING: 32 MAX_TORS EXCEEDED!!!
REMARK  88 active torsions:
REMARK  status: ('A' for Active; 'I' for Inactive)
REMARK    1  A    between atoms: C_1  and  O_28 
REMARK    2  A    between atoms: C_2  and  C_6 
REMARK    3  A    between atoms: C_3  and  O_8 
REMARK    4  A    between atoms: C_4  and  O_10 
REMARK    5  A    between atoms: C_5  and  O_11 
REMARK    6  A    between atoms: C_6  and  O_58 
REMARK    7  A    between atoms: O_11  and  C_18 
REMARK    8  A    between atoms: O_13  and  C_16 
REMARK    9  A    between atoms: C_15  and  C_21 
REMARK   10  A    between atoms: O_17  and  C_20 
REMARK   11  A    between atoms: O_17  and  C_39 
REMARK   12  A    between atoms: O_19  and  C_22 
REMARK   13  A    between atoms: O_19  and  C_153 
REMARK   14  A    between atoms: C_21  and  O_60 
REMARK   15  A    between atoms: O_24  and  C_27 
REMARK   16  A    between atoms: C_26  and  C_32 
REMARK   17  A    between atoms: O_28  and  C_31 
REMARK   18  A    between atoms: C_29  and  O_49 
REMARK   19  A    between atoms: O_30  and  C_33 
REMARK   20  A    between atoms: C_32  and  O_56 
REMARK   21  A    between atoms: O_35  and  C_38 
REMARK   22  A    between atoms: C_37  and  C_42 
REMARK   23  A    between atoms: O_40  and  C_43 
REMARK   24  A    between atoms: C_42  and  O_62 
REMARK   25  A    between atoms: O_45  and  C_48 
REMARK   26  A    between atoms: C_47  and  C_53 
REMARK   27  A    between atoms: O_49  and  C_52 
REMARK   28  A    between atoms: O_51  and  C_54 
REMARK   29  A    between atoms: O_51  and  C_64 
REMARK   30  A    between atoms: C_53  and  O_55 
REMARK   31  A    between atoms: C_64  and  C_65 
REMARK   32  A    between atoms: C_65  and  C_66 
REMARK   33  A    between atoms: C_65  and  C_75 
REMARK   34  A    between atoms: C_66  and  C_67 
REMARK   35  A    between atoms: C_67  and  C_68 
REMARK   36  A    between atoms: C_67  and  C_79 
REMARK   37  A    between atoms: C_68  and  C_69 
REMARK   38  A    between atoms: C_69  and  C_70 
REMARK   39  A    between atoms: C_69  and  C_83 
REMARK   40  A    between atoms: C_70  and  C_71 
REMARK   41  A    between atoms: C_71  and  C_72 
REMARK   42  A    between atoms: C_71  and  C_87 
REMARK   43  A    between atoms: C_72  and  C_73 
REMARK   44  A    between atoms: C_73  and  C_91 
REMARK   45  A    between atoms: C_75  and  C_76 
REMARK   46  A    between atoms: C_76  and  C_77 
REMARK   47  A    between atoms: C_77  and  N_95 
REMARK   48  A    between atoms: C_79  and  C_80 
REMARK   49  A    between atoms: C_80  and  C_81 
REMARK   50  A    between atoms: C_81  and  N_96 
REMARK   51  A    between atoms: C_83  and  C_84 
REMARK   52  A    between atoms: C_84  and  C_85 
REMARK   53  A    between atoms: C_85  and  N_97 
REMARK   54  A    between atoms: C_87  and  C_88 
REMARK   55  A    between atoms: C_88  and  C_89 
REMARK   56  A    between atoms: C_89  and  N_98 
REMARK   57  A    between atoms: C_91  and  C_92 
REMARK   58  A    between atoms: C_92  and  C_93 
REMARK   59  A    between atoms: C_93  and  N_99 
REMARK   60  A    between atoms: N_118  and  C_121 
REMARK   61  A    between atoms: C_121  and  C_127 
REMARK   62  A    between atoms: C_122  and  C_127 
REMARK   63  A    between atoms: C_122  and  C_134 
REMARK   64  A    between atoms: N_124  and  C_131 
REMARK   65  A    between atoms: C_128  and  C_129 
REMARK   66  A    between atoms: C_128  and  C_138 
REMARK   67  A    between atoms: C_129  and  C_131 
REMARK   68  A    between atoms: N_133  and  C_144 
REMARK   69  A    between atoms: C_134  and  C_145 
REMARK   70  A    between atoms: C_134  and  C_151 
REMARK   71  A    between atoms: C_136  and  C_144 
REMARK   72  A    between atoms: C_136  and  C_148 
REMARK   73  A    between atoms: C_138  and  C_154 
REMARK   74  A    between atoms: C_138  and  C_145 
REMARK   75  A    between atoms: C_140  and  C_148 
REMARK   76  A    between atoms: C_140  and  C_141 
REMARK   77  A    between atoms: C_141  and  C_155 
REMARK   78  A    between atoms: C_142  and  C_153 
REMARK   79  A    between atoms: C_142  and  C_151 
REMARK   80  A    between atoms: C_142  and  C_152 
REMARK   81  A    between atoms: C_143  and  N_149 
REMARK   82  A    between atoms: C_143  and  C_146 
REMARK   83  A    between atoms: C_146  and  C_152 
REMARK   84  A    between atoms: C_154  and  C_155 
REMARK   85  A    between atoms: C_155  and  C_161 
REMARK   86  A    between atoms: C_158  and  C_163 
REMARK   87  A    between atoms: C_158  and  C_161 
REMARK   88  A    between atoms: N_159  and  C_163 
ROOT
HETATM    1  C   UNL     1      20.968  67.143  17.550  1.00  0.00     0.187 C 
HETATM    2  C   UNL     1      19.562  66.519  17.693  1.00  0.00     0.180 C 
HETATM    3  C   UNL     1      21.174  67.715  16.132  1.00  0.00     0.183 C 
HETATM    4  C   UNL     1      20.673  66.735  15.043  1.00  0.00     0.204 C 
HETATM    5  C   UNL     1      19.180  66.329  15.303  1.00  0.00     0.292 C 
HETATM    6  O   UNL     1      18.721  66.824  16.565  1.00  0.00    -0.348 OA
ENDROOT
BRANCH   1   7
HETATM    7  O   UNL     1      21.090  68.202  18.510  1.00  0.00    -0.348 OA
BRANCH   7   8
HETATM    8  C   UNL     1      21.561  67.800  19.804  1.00  0.00     0.292 C 
HETATM    9  O   UNL     1      20.470  67.974  20.704  1.00  0.00    -0.348 OA
HETATM   10  C   UNL     1      20.763  67.896  22.108  1.00  0.00     0.180 C 
HETATM   11  C   UNL     1      22.071  68.592  22.540  1.00  0.00     0.187 C 
HETATM   12  C   UNL     1      22.646  69.463  21.429  1.00  0.00     0.183 C 
HETATM   13  C   UNL     1      22.851  68.610  20.173  1.00  0.00     0.204 C 
BRANCH  10  14
HETATM   14  C   UNL     1      20.730  66.418  22.530  1.00  0.00     0.198 C 
BRANCH  14  15
HETATM   15  O   UNL     1      19.650  65.740  21.889  1.00  0.00    -0.398 OA
HETATM   16  H   UNL     1      18.832  66.023  22.342  1.00  0.00     0.209 HD
ENDBRANCH  14  15
ENDBRANCH  10  14
BRANCH  11  17
HETATM   17  O   UNL     1      21.808  69.463  23.652  1.00  0.00    -0.348 OA
BRANCH  17  18
HETATM   18  C   UNL     1      20.423  69.597  23.949  1.00  0.00     0.292 C 
HETATM   19  O   UNL     1      19.944  70.819  23.374  1.00  0.00    -0.351 OA
HETATM   20  C   UNL     1      18.509  70.836  23.238  1.00  0.00     0.150 C 
HETATM   21  C   UNL     1      17.838  70.090  24.408  1.00  0.00     0.068 C 
HETATM   22  C   UNL     1      18.705  70.226  25.670  1.00  0.00     0.154 C 
HETATM   23  C   UNL     1      20.116  69.568  25.500  1.00  0.00     0.205 C 
BRANCH  20  24
HETATM   24  C   UNL     1      18.088  70.366  21.837  1.00  0.00     0.196 C 
BRANCH  24  25
HETATM   25  O   UNL     1      19.043  70.743  20.849  1.00  0.00    -0.398 OA
HETATM   26  H   UNL     1      19.527  71.528  21.148  1.00  0.00     0.209 HD
ENDBRANCH  24  25
ENDBRANCH  20  24
BRANCH  22  27
HETATM   27  O   UNL     1      18.846  71.632  25.933  1.00  0.00    -0.393 OA
HETATM   28  H   UNL     1      18.327  72.109  25.255  1.00  0.00     0.210 HD
ENDBRANCH  22  27
BRANCH  23  29
HETATM   29  O   UNL     1      21.151  70.268  26.327  1.00  0.00    -0.377 OA
BRANCH  29  30
HETATM   30  C   UNL     1      21.997  69.446  27.233  1.00  0.00     0.185 C 
BRANCH  30  31
HETATM   31  C   UNL     1      23.503  69.990  27.442  1.00  0.00     0.039 C 
HETATM   32  C   UNL     1      24.288  69.801  26.135  1.00  0.00     0.025 C 
BRANCH  31  33
HETATM   33  C   UNL     1      24.259  69.274  28.687  1.00  0.00     0.036 C 
BRANCH  33  34
HETATM   34  C   UNL     1      24.637  67.690  28.775  1.00  0.00     0.019 C 
HETATM   35  C   UNL     1      24.370  67.346  30.265  1.00  0.00     0.023 C 
BRANCH  34  36
HETATM   36  C   UNL     1      26.209  67.503  28.421  1.00  0.00     0.033 C 
BRANCH  36  37
HETATM   37  C   UNL     1      27.510  67.671  29.407  1.00  0.00     0.019 C 
HETATM   38  C   UNL     1      27.176  68.660  30.535  1.00  0.00     0.023 C 
BRANCH  37  39
HETATM   39  C   UNL     1      28.666  68.289  28.484  1.00  0.00     0.033 C 
BRANCH  39  40
HETATM   40  C   UNL     1      28.603  69.432  27.327  1.00  0.00     0.019 C 
HETATM   41  C   UNL     1      27.940  68.723  26.115  1.00  0.00     0.023 C 
BRANCH  40  42
HETATM   42  C   UNL     1      27.823  70.752  27.647  1.00  0.00     0.033 C 
BRANCH  42  43
HETATM   43  C   UNL     1      28.294  71.915  28.602  1.00  0.00     0.014 C 
HETATM   44  C   UNL     1      29.321  72.755  27.794  1.00  0.00     0.023 C 
HETATM   45  C   UNL     1      29.076  71.444  29.844  1.00  0.00     0.023 C 
BRANCH  43  46
HETATM   46  C   UNL     1      27.116  72.801  29.077  1.00  0.00     0.136 C 
HETATM   47  O   UNL     1      26.938  73.913  28.569  1.00  0.00    -0.297 OA
BRANCH  46  48
HETATM   48  C   UNL     1      26.230  72.355  30.236  1.00  0.00     0.109 C 
BRANCH  48  49
HETATM   49  C   UNL     1      26.061  73.490  31.259  1.00  0.00     0.279 C 
BRANCH  49  50
HETATM   50  N   UNL     1      27.334  73.871  31.906  1.00  0.00     0.080 N 
HETATM   51  C   UNL     1      27.368  75.291  32.259  1.00  0.00     0.309 C 
HETATM   52  C   UNL     1      27.546  73.069  33.117  1.00  0.00     0.309 C 
ENDBRANCH  49  50
ENDBRANCH  48  49
ENDBRANCH  46  48
ENDBRANCH  43  46
ENDBRANCH  42  43
ENDBRANCH  40  42
BRANCH  40  53
HETATM   53  C   UNL     1      30.077  69.724  26.894  1.00  0.00     0.137 C 
HETATM   54  O   UNL     1      30.355  70.084  25.755  1.00  0.00    -0.297 OA
BRANCH  53  55
HETATM   55  C   UNL     1      31.192  69.359  27.853  1.00  0.00     0.109 C 
BRANCH  55  56
HETATM   56  C   UNL     1      32.355  70.351  27.818  1.00  0.00     0.279 C 
BRANCH  56  57
HETATM   57  N   UNL     1      32.910  70.492  29.181  1.00  0.00     0.080 N 
HETATM   58  C   UNL     1      32.761  71.866  29.668  1.00  0.00     0.309 C 
HETATM   59  C   UNL     1      32.279  69.564  30.114  1.00  0.00     0.309 C 
ENDBRANCH  56  57
ENDBRANCH  55  56
ENDBRANCH  53  55
ENDBRANCH  40  53
ENDBRANCH  39  40
ENDBRANCH  37  39
BRANCH  37  60
HETATM   60  C   UNL     1      28.062  66.392  30.092  1.00  0.00     0.137 C 
HETATM   61  O   UNL     1      29.147  66.434  30.683  1.00  0.00    -0.297 OA
BRANCH  60  62
HETATM   62  C   UNL     1      27.298  65.091  30.091  1.00  0.00     0.109 C 
BRANCH  62  63
HETATM   63  C   UNL     1      27.942  63.989  30.945  1.00  0.00     0.279 C 
BRANCH  63  64
HETATM   64  N   UNL     1      27.052  63.559  32.046  1.00  0.00     0.080 N 
HETATM   65  C   UNL     1      27.696  63.727  33.351  1.00  0.00     0.309 C 
HETATM   66  C   UNL     1      25.807  64.333  32.016  1.00  0.00     0.309 C 
ENDBRANCH  63  64
ENDBRANCH  62  63
ENDBRANCH  60  62
ENDBRANCH  37  60
ENDBRANCH  36  37
ENDBRANCH  34  36
BRANCH  34  67
HETATM   67  C   UNL     1      23.857  66.679  27.881  1.00  0.00     0.137 C 
HETATM   68  O   UNL     1      24.297  66.432  26.752  1.00  0.00    -0.297 OA
BRANCH  67  69
HETATM   69  C   UNL     1      22.553  66.010  28.338  1.00  0.00     0.109 C 
BRANCH  69  70
HETATM   70  C   UNL     1      22.303  64.650  27.642  1.00  0.00     0.279 C 
BRANCH  70  71
HETATM   71  N   UNL     1      22.930  63.427  28.184  1.00  0.00     0.080 N 
HETATM   72  C   UNL     1      22.991  63.410  29.637  1.00  0.00     0.309 C 
HETATM   73  C   UNL     1      22.161  62.253  27.743  1.00  0.00     0.309 C 
ENDBRANCH  70  71
ENDBRANCH  69  70
ENDBRANCH  67  69
ENDBRANCH  34  67
ENDBRANCH  33  34
ENDBRANCH  31  33
BRANCH  31  74
HETATM   74  C   UNL     1      23.291  71.466  27.859  1.00  0.00     0.139 C 
HETATM   75  O   UNL     1      24.067  72.348  27.467  1.00  0.00    -0.297 OA
BRANCH  74  76
HETATM   76  C   UNL     1      22.226  71.846  28.864  1.00  0.00     0.109 C 
BRANCH  76  77
HETATM   77  C   UNL     1      22.647  71.365  30.241  1.00  0.00     0.279 C 
BRANCH  77  78
HETATM   78  N   UNL     1      21.535  71.004  31.133  1.00  0.00     0.080 N 
HETATM   79  C   UNL     1      20.345  70.621  30.372  1.00  0.00     0.309 C 
HETATM   80  C   UNL     1      21.215  72.134  32.012  1.00  0.00     0.309 C 
ENDBRANCH  77  78
ENDBRANCH  76  77
ENDBRANCH  74  76
ENDBRANCH  31  74
ENDBRANCH  30  31
ENDBRANCH  29  30
ENDBRANCH  23  29
ENDBRANCH  17  18
ENDBRANCH  11  17
BRANCH  12  81
HETATM   81  O   UNL     1      21.791  70.585  21.171  1.00  0.00    -0.390 OA
HETATM   82  H   UNL     1      21.403  70.408  20.289  1.00  0.00     0.210 HD
ENDBRANCH  12  81
BRANCH  13  83
HETATM   83  O   UNL     1      23.424  69.438  19.092  1.00  0.00    -0.388 OA
HETATM   84  H   UNL     1      23.615  70.326  19.432  1.00  0.00     0.210 HD
ENDBRANCH  13  83
ENDBRANCH   7   8
ENDBRANCH   1   7
BRANCH   2  85
HETATM   85  C   UNL     1      19.657  65.007  17.969  1.00  0.00     0.198 C 
BRANCH  85  86
HETATM   86  O   UNL     1      19.385  64.704  19.331  1.00  0.00    -0.398 OA
HETATM   87  H   UNL     1      18.525  64.250  19.376  1.00  0.00     0.209 HD
ENDBRANCH  85  86
ENDBRANCH   2  85
BRANCH   3  88
HETATM   88  O   UNL     1      20.516  68.985  15.993  1.00  0.00    -0.390 OA
HETATM   89  H   UNL     1      20.897  69.416  15.199  1.00  0.00     0.210 HD
ENDBRANCH   3  88
BRANCH   4  90
HETATM   90  O   UNL     1      20.900  67.278  13.683  1.00  0.00    -0.388 OA
HETATM   91  H   UNL     1      20.077  67.667  13.349  1.00  0.00     0.210 HD
ENDBRANCH   4  90
BRANCH   5  92
HETATM   92  O   UNL     1      18.303  66.890  14.303  1.00  0.00    -0.348 OA
BRANCH  92  93
HETATM   93  C   UNL     1      17.009  66.241  14.135  1.00  0.00     0.187 C 
HETATM   94  C   UNL     1      16.840  65.104  15.158  1.00  0.00     0.180 C 
HETATM   95  O   UNL     1      15.674  65.247  15.968  1.00  0.00    -0.348 OA
HETATM   96  C   UNL     1      14.450  65.565  15.309  1.00  0.00     0.292 C 
HETATM   97  C   UNL     1      14.463  66.879  14.410  1.00  0.00     0.208 C 
HETATM   98  C   UNL     1      15.945  67.357  14.377  1.00  0.00     0.183 C 
BRANCH  94  99
HETATM   99  C   UNL     1      16.839  63.702  14.529  1.00  0.00     0.198 C 
BRANCH  99 100
HETATM  100  O   UNL     1      17.770  62.855  15.200  1.00  0.00    -0.398 OA
HETATM  101  H   UNL     1      18.661  63.242  15.084  1.00  0.00     0.209 HD
ENDBRANCH  99 100
ENDBRANCH  94  99
BRANCH  96 102
HETATM  102  O   UNL     1      13.527  65.717  16.386  1.00  0.00    -0.348 OA
BRANCH 102 103
HETATM  103  C   UNL     1      14.016  65.360  17.670  1.00  0.00     0.187 C 
HETATM  104  C   UNL     1      13.740  66.496  18.676  1.00  0.00     0.176 C 
HETATM  105  O   UNL     1      13.488  66.001  20.013  1.00  0.00    -0.378 OA
HETATM  106  C   UNL     1      14.261  64.844  20.349  1.00  0.00     0.202 C 
HETATM  107  C   UNL     1      13.873  63.626  19.481  1.00  0.00     0.173 C 
HETATM  108  C   UNL     1      13.284  64.085  18.129  1.00  0.00     0.180 C 
BRANCH 104 109
HETATM  109  C   UNL     1      14.868  67.534  18.736  1.00  0.00     0.198 C 
BRANCH 109 110
HETATM  110  O   UNL     1      16.047  67.007  18.129  1.00  0.00    -0.398 OA
HETATM  111  H   UNL     1      16.292  67.632  17.419  1.00  0.00     0.209 HD
ENDBRANCH 109 110
ENDBRANCH 104 109
BRANCH 107 112
HETATM  112  O   UNL     1      12.941  62.726  20.184  1.00  0.00    -0.391 OA
HETATM  113  H   UNL     1      13.004  62.876  21.140  1.00  0.00     0.210 HD
ENDBRANCH 107 112
BRANCH 108 114
HETATM  114  O   UNL     1      11.863  64.293  18.253  1.00  0.00    -0.390 OA
HETATM  115  H   UNL     1      11.639  65.102  17.757  1.00  0.00     0.210 HD
ENDBRANCH 108 114
ENDBRANCH 102 103
ENDBRANCH  96 102
BRANCH  97 116
HETATM  116  O   UNL     1      13.475  67.882  14.944  1.00  0.00    -0.369 OA
BRANCH 116 117
HETATM  117  C   UNL     1      13.118  69.177  14.349  1.00  0.00     0.168 C 
BRANCH 117 118
HETATM  118  C   UNL     1      11.958  70.096  14.971  1.00  0.00     0.046 C 
HETATM  119  C   UNL     1      11.006  69.124  15.688  1.00  0.00     0.026 C 
BRANCH 118 120
HETATM  120  C   UNL     1      11.107  71.142  14.035  1.00  0.00     0.036 C 
BRANCH 120 121
HETATM  121  C   UNL     1      10.918  70.956  12.392  1.00  0.00     0.019 C 
HETATM  122  C   UNL     1      10.425  69.484  12.316  1.00  0.00     0.023 C 
BRANCH 121 123
HETATM  123  C   UNL     1       9.901  71.882  11.657  1.00  0.00     0.137 C 
HETATM  124  O   UNL     1       9.399  71.477  10.601  1.00  0.00    -0.297 OA
BRANCH 123 125
HETATM  125  C   UNL     1       9.531  73.281  12.187  1.00  0.00     0.109 C 
BRANCH 125 126
HETATM  126  C   UNL     1      10.150  74.428  11.356  1.00  0.00     0.279 C 
BRANCH 126 127
HETATM  127  N   UNL     1      11.614  74.622  11.354  1.00  0.00     0.080 N 
HETATM  128  C   UNL     1      12.082  74.764  12.739  1.00  0.00     0.309 C 
HETATM  129  C   UNL     1      12.038  75.792  10.605  1.00  0.00     0.309 C 
ENDBRANCH 126 127
ENDBRANCH 125 126
ENDBRANCH 123 125
ENDBRANCH 121 123
BRANCH 121 130
HETATM  130  C   UNL     1      12.313  71.120  11.541  1.00  0.00     0.033 C 
BRANCH 130 131
HETATM  131  C   UNL     1      12.676  70.465  10.045  1.00  0.00     0.019 C 
HETATM  132  C   UNL     1      12.246  68.988  10.035  1.00  0.00     0.023 C 
BRANCH 131 133
HETATM  133  C   UNL     1      12.048  71.117   8.780  1.00  0.00     0.137 C 
HETATM  134  O   UNL     1      11.350  70.432   8.022  1.00  0.00    -0.297 OA
BRANCH 133 135
HETATM  135  C   UNL     1      12.249  72.574   8.443  1.00  0.00     0.109 C 
BRANCH 135 136
HETATM  136  C   UNL     1      10.999  73.285   7.897  1.00  0.00     0.279 C 
BRANCH 136 137
HETATM  137  N   UNL     1      11.341  74.527   7.172  1.00  0.00     0.080 N 
HETATM  138  C   UNL     1      10.791  74.490   5.813  1.00  0.00     0.309 C 
HETATM  139  C   UNL     1      12.791  74.727   7.100  1.00  0.00     0.309 C 
ENDBRANCH 136 137
ENDBRANCH 135 136
ENDBRANCH 133 135
ENDBRANCH 131 133
BRANCH 131 140
HETATM  140  C   UNL     1      14.273  70.541   9.872  1.00  0.00     0.033 C 
BRANCH 140 141
HETATM  141  C   UNL     1      15.312  69.522   9.106  1.00  0.00     0.019 C 
HETATM  142  C   UNL     1      14.469  68.892   7.963  1.00  0.00     0.023 C 
BRANCH 141 143
HETATM  143  C   UNL     1      16.638  70.110   8.500  1.00  0.00     0.033 C 
BRANCH 143 144
HETATM  144  C   UNL     1      16.759  71.160   7.323  1.00  0.00     0.014 C 
HETATM  145  C   UNL     1      18.115  71.893   7.526  1.00  0.00     0.023 C 
HETATM  146  C   UNL     1      15.708  72.289   7.358  1.00  0.00     0.023 C 
BRANCH 144 147
HETATM  147  C   UNL     1      16.707  70.500   5.920  1.00  0.00     0.136 C 
HETATM  148  O   UNL     1      17.287  69.430   5.720  1.00  0.00    -0.297 OA
BRANCH 147 149
HETATM  149  C   UNL     1      16.024  71.212   4.753  1.00  0.00     0.109 C 
BRANCH 149 150
HETATM  150  C   UNL     1      17.044  71.582   3.663  1.00  0.00     0.279 C 
BRANCH 150 151
HETATM  151  N   UNL     1      16.610  71.175   2.309  1.00  0.00     0.080 N 
HETATM  152  C   UNL     1      17.035  69.814   1.980  1.00  0.00     0.309 C 
HETATM  153  C   UNL     1      15.149  71.264   2.197  1.00  0.00     0.309 C 
ENDBRANCH 150 151
ENDBRANCH 149 150
ENDBRANCH 147 149
ENDBRANCH 144 147
ENDBRANCH 143 144
ENDBRANCH 141 143
BRANCH 141 154
HETATM  154  C   UNL     1      15.623  68.354  10.097  1.00  0.00     0.137 C 
HETATM  155  O   UNL     1      15.897  68.568  11.282  1.00  0.00    -0.297 OA
BRANCH 154 156
HETATM  156  C   UNL     1      15.778  66.955   9.541  1.00  0.00     0.109 C 
BRANCH 156 157
HETATM  157  C   UNL     1      14.672  65.997   9.990  1.00  0.00     0.279 C 
BRANCH 157 158
HETATM  158  N   UNL     1      15.117  65.284  11.207  1.00  0.00     0.080 N 
HETATM  159  C   UNL     1      16.316  64.489  10.957  1.00  0.00     0.309 C 
HETATM  160  C   UNL     1      14.052  64.426  11.730  1.00  0.00     0.309 C 
ENDBRANCH 157 158
ENDBRANCH 156 157
ENDBRANCH 154 156
ENDBRANCH 141 154
ENDBRANCH 140 141
ENDBRANCH 131 140
ENDBRANCH 130 131
ENDBRANCH 121 130
ENDBRANCH 120 121
ENDBRANCH 118 120
BRANCH 118 161
HETATM  161  C   UNL     1      12.828  71.010  15.881  1.00  0.00     0.139 C 
HETATM  162  O   UNL     1      13.261  70.613  16.971  1.00  0.00    -0.297 OA
BRANCH 161 163
HETATM  163  C   UNL     1      13.060  72.453  15.505  1.00  0.00     0.109 C 
BRANCH 163 164
HETATM  164  C   UNL     1      12.678  73.340  16.668  1.00  0.00     0.279 C 
BRANCH 164 165
HETATM  165  N   UNL     1      11.234  73.506  16.889  1.00  0.00     0.080 N 
HETATM  166  C   UNL     1      10.838  74.909  16.759  1.00  0.00     0.309 C 
HETATM  167  C   UNL     1      10.889  73.039  18.236  1.00  0.00     0.309 C 
ENDBRANCH 164 165
ENDBRANCH 163 164
ENDBRANCH 161 163
ENDBRANCH 118 161
ENDBRANCH 117 118
ENDBRANCH 116 117
ENDBRANCH  97 116
BRANCH  98 168
HETATM  168  O   UNL     1      16.254  68.020  15.622  1.00  0.00    -0.390 OA
HETATM  169  H   UNL     1      16.073  68.971  15.479  1.00  0.00     0.210 HD
ENDBRANCH  98 168
ENDBRANCH  92  93
ENDBRANCH   5  92
TORSDOF 88
ENDMDL
MODEL 7
REMARK VINA RESULT:      -5.4      3.345     20.875
REMARK WARNING: 32 MAX_TORS EXCEEDED!!!
REMARK  88 active torsions:
REMARK  status: ('A' for Active; 'I' for Inactive)
REMARK    1  A    between atoms: C_1  and  O_28 
REMARK    2  A    between atoms: C_2  and  C_6 
REMARK    3  A    between atoms: C_3  and  O_8 
REMARK    4  A    between atoms: C_4  and  O_10 
REMARK    5  A    between atoms: C_5  and  O_11 
REMARK    6  A    between atoms: C_6  and  O_58 
REMARK    7  A    between atoms: O_11  and  C_18 
REMARK    8  A    between atoms: O_13  and  C_16 
REMARK    9  A    between atoms: C_15  and  C_21 
REMARK   10  A    between atoms: O_17  and  C_20 
REMARK   11  A    between atoms: O_17  and  C_39 
REMARK   12  A    between atoms: O_19  and  C_22 
REMARK   13  A    between atoms: O_19  and  C_153 
REMARK   14  A    between atoms: C_21  and  O_60 
REMARK   15  A    between atoms: O_24  and  C_27 
REMARK   16  A    between atoms: C_26  and  C_32 
REMARK   17  A    between atoms: O_28  and  C_31 
REMARK   18  A    between atoms: C_29  and  O_49 
REMARK   19  A    between atoms: O_30  and  C_33 
REMARK   20  A    between atoms: C_32  and  O_56 
REMARK   21  A    between atoms: O_35  and  C_38 
REMARK   22  A    between atoms: C_37  and  C_42 
REMARK   23  A    between atoms: O_40  and  C_43 
REMARK   24  A    between atoms: C_42  and  O_62 
REMARK   25  A    between atoms: O_45  and  C_48 
REMARK   26  A    between atoms: C_47  and  C_53 
REMARK   27  A    between atoms: O_49  and  C_52 
REMARK   28  A    between atoms: O_51  and  C_54 
REMARK   29  A    between atoms: O_51  and  C_64 
REMARK   30  A    between atoms: C_53  and  O_55 
REMARK   31  A    between atoms: C_64  and  C_65 
REMARK   32  A    between atoms: C_65  and  C_66 
REMARK   33  A    between atoms: C_65  and  C_75 
REMARK   34  A    between atoms: C_66  and  C_67 
REMARK   35  A    between atoms: C_67  and  C_68 
REMARK   36  A    between atoms: C_67  and  C_79 
REMARK   37  A    between atoms: C_68  and  C_69 
REMARK   38  A    between atoms: C_69  and  C_70 
REMARK   39  A    between atoms: C_69  and  C_83 
REMARK   40  A    between atoms: C_70  and  C_71 
REMARK   41  A    between atoms: C_71  and  C_72 
REMARK   42  A    between atoms: C_71  and  C_87 
REMARK   43  A    between atoms: C_72  and  C_73 
REMARK   44  A    between atoms: C_73  and  C_91 
REMARK   45  A    between atoms: C_75  and  C_76 
REMARK   46  A    between atoms: C_76  and  C_77 
REMARK   47  A    between atoms: C_77  and  N_95 
REMARK   48  A    between atoms: C_79  and  C_80 
REMARK   49  A    between atoms: C_80  and  C_81 
REMARK   50  A    between atoms: C_81  and  N_96 
REMARK   51  A    between atoms: C_83  and  C_84 
REMARK   52  A    between atoms: C_84  and  C_85 
REMARK   53  A    between atoms: C_85  and  N_97 
REMARK   54  A    between atoms: C_87  and  C_88 
REMARK   55  A    between atoms: C_88  and  C_89 
REMARK   56  A    between atoms: C_89  and  N_98 
REMARK   57  A    between atoms: C_91  and  C_92 
REMARK   58  A    between atoms: C_92  and  C_93 
REMARK   59  A    between atoms: C_93  and  N_99 
REMARK   60  A    between atoms: N_118  and  C_121 
REMARK   61  A    between atoms: C_121  and  C_127 
REMARK   62  A    between atoms: C_122  and  C_127 
REMARK   63  A    between atoms: C_122  and  C_134 
REMARK   64  A    between atoms: N_124  and  C_131 
REMARK   65  A    between atoms: C_128  and  C_129 
REMARK   66  A    between atoms: C_128  and  C_138 
REMARK   67  A    between atoms: C_129  and  C_131 
REMARK   68  A    between atoms: N_133  and  C_144 
REMARK   69  A    between atoms: C_134  and  C_145 
REMARK   70  A    between atoms: C_134  and  C_151 
REMARK   71  A    between atoms: C_136  and  C_144 
REMARK   72  A    between atoms: C_136  and  C_148 
REMARK   73  A    between atoms: C_138  and  C_154 
REMARK   74  A    between atoms: C_138  and  C_145 
REMARK   75  A    between atoms: C_140  and  C_148 
REMARK   76  A    between atoms: C_140  and  C_141 
REMARK   77  A    between atoms: C_141  and  C_155 
REMARK   78  A    between atoms: C_142  and  C_153 
REMARK   79  A    between atoms: C_142  and  C_151 
REMARK   80  A    between atoms: C_142  and  C_152 
REMARK   81  A    between atoms: C_143  and  N_149 
REMARK   82  A    between atoms: C_143  and  C_146 
REMARK   83  A    between atoms: C_146  and  C_152 
REMARK   84  A    between atoms: C_154  and  C_155 
REMARK   85  A    between atoms: C_155  and  C_161 
REMARK   86  A    between atoms: C_158  and  C_163 
REMARK   87  A    between atoms: C_158  and  C_161 
REMARK   88  A    between atoms: N_159  and  C_163 
ROOT
HETATM    1  C   UNL     1      23.493  70.159  24.908  1.00  0.00     0.187 C 
HETATM    2  C   UNL     1      21.961  69.986  24.823  1.00  0.00     0.180 C 
HETATM    3  C   UNL     1      24.118  70.229  23.499  1.00  0.00     0.183 C 
HETATM    4  C   UNL     1      23.536  69.142  22.563  1.00  0.00     0.204 C 
HETATM    5  C   UNL     1      21.970  69.224  22.517  1.00  0.00     0.292 C 
HETATM    6  O   UNL     1      21.473  70.161  23.480  1.00  0.00    -0.348 OA
ENDROOT
BRANCH   1   7
HETATM    7  O   UNL     1      23.770  71.380  25.608  1.00  0.00    -0.348 OA
BRANCH   7   8
HETATM    8  C   UNL     1      25.052  71.437  26.251  1.00  0.00     0.292 C 
HETATM    9  O   UNL     1      25.712  70.211  25.945  1.00  0.00    -0.348 OA
HETATM   10  C   UNL     1      26.902  69.908  26.692  1.00  0.00     0.180 C 
HETATM   11  C   UNL     1      26.830  70.243  28.196  1.00  0.00     0.187 C 
HETATM   12  C   UNL     1      25.409  70.570  28.639  1.00  0.00     0.183 C 
HETATM   13  C   UNL     1      24.864  71.716  27.781  1.00  0.00     0.204 C 
BRANCH  10  14
HETATM   14  C   UNL     1      28.094  70.592  26.004  1.00  0.00     0.198 C 
BRANCH  14  15
HETATM   15  O   UNL     1      28.525  69.831  24.876  1.00  0.00    -0.398 OA
HETATM   16  H   UNL     1      29.367  69.407  25.129  1.00  0.00     0.209 HD
ENDBRANCH  14  15
ENDBRANCH  10  14
BRANCH  11  17
HETATM   17  O   UNL     1      27.248  69.103  28.964  1.00  0.00    -0.348 OA
BRANCH  17  18
HETATM   18  C   UNL     1      27.342  67.909  28.195  1.00  0.00     0.292 C 
HETATM   19  O   UNL     1      26.475  66.922  28.768  1.00  0.00    -0.351 OA
HETATM   20  C   UNL     1      26.167  65.860  27.843  1.00  0.00     0.150 C 
HETATM   21  C   UNL     1      27.375  65.552  26.938  1.00  0.00     0.068 C 
HETATM   22  C   UNL     1      28.677  65.839  27.702  1.00  0.00     0.154 C 
HETATM   23  C   UNL     1      28.818  67.347  28.100  1.00  0.00     0.205 C 
BRANCH  20  24
HETATM   24  C   UNL     1      24.852  66.147  27.102  1.00  0.00     0.196 C 
BRANCH  24  25
HETATM   25  O   UNL     1      25.051  67.031  26.002  1.00  0.00    -0.398 OA
HETATM   26  H   UNL     1      25.991  67.265  25.941  1.00  0.00     0.209 HD
ENDBRANCH  24  25
ENDBRANCH  20  24
BRANCH  22  27
HETATM   27  O   UNL     1      28.661  65.018  28.882  1.00  0.00    -0.393 OA
HETATM   28  H   UNL     1      28.297  65.560  29.610  1.00  0.00     0.210 HD
ENDBRANCH  22  27
BRANCH  23  29
HETATM   29  O   UNL     1      29.603  67.510  29.365  1.00  0.00    -0.377 OA
BRANCH  29  30
HETATM   30  C   UNL     1      30.996  68.021  29.265  1.00  0.00     0.185 C 
BRANCH  30  31
HETATM   31  C   UNL     1      31.649  68.502  30.661  1.00  0.00     0.039 C 
HETATM   32  C   UNL     1      30.665  69.438  31.378  1.00  0.00     0.025 C 
BRANCH  31  33
HETATM   33  C   UNL     1      33.095  69.213  30.462  1.00  0.00     0.036 C 
BRANCH  33  34
HETATM   34  C   UNL     1      33.417  70.411  29.404  1.00  0.00     0.019 C 
HETATM   35  C   UNL     1      33.501  69.666  28.044  1.00  0.00     0.023 C 
BRANCH  34  36
HETATM   36  C   UNL     1      34.849  71.074  29.778  1.00  0.00     0.033 C 
BRANCH  36  37
HETATM   37  C   UNL     1      35.991  71.686  28.771  1.00  0.00     0.019 C 
HETATM   38  C   UNL     1      35.428  71.765  27.343  1.00  0.00     0.023 C 
BRANCH  37  39
HETATM   39  C   UNL     1      37.200  70.634  28.809  1.00  0.00     0.033 C 
BRANCH  39  40
HETATM   40  C   UNL     1      37.683  69.616  29.983  1.00  0.00     0.019 C 
HETATM   41  C   UNL     1      37.485  70.416  31.299  1.00  0.00     0.023 C 
BRANCH  40  42
HETATM   42  C   UNL     1      36.952  68.236  30.100  1.00  0.00     0.033 C 
BRANCH  42  43
HETATM   43  C   UNL     1      37.069  67.021  29.101  1.00  0.00     0.014 C 
HETATM   44  C   UNL     1      37.277  67.636  27.689  1.00  0.00     0.023 C 
HETATM   45  C   UNL     1      35.786  66.178  28.967  1.00  0.00     0.023 C 
BRANCH  43  46
HETATM   46  C   UNL     1      38.238  66.072  29.460  1.00  0.00     0.136 C 
HETATM   47  O   UNL     1      38.171  65.367  30.472  1.00  0.00    -0.297 OA
BRANCH  46  48
HETATM   48  C   UNL     1      39.518  66.071  28.629  1.00  0.00     0.109 C 
BRANCH  48  49
HETATM   49  C   UNL     1      40.701  65.537  29.453  1.00  0.00     0.279 C 
BRANCH  49  50
HETATM   50  N   UNL     1      41.378  64.393  28.807  1.00  0.00     0.080 N 
HETATM   51  C   UNL     1      42.770  64.263  29.240  1.00  0.00     0.309 C 
HETATM   52  C   UNL     1      40.662  63.147  29.105  1.00  0.00     0.309 C 
ENDBRANCH  49  50
ENDBRANCH  48  49
ENDBRANCH  46  48
ENDBRANCH  43  46
ENDBRANCH  42  43
ENDBRANCH  40  42
BRANCH  40  53
HETATM   53  C   UNL     1      39.228  69.437  29.823  1.00  0.00     0.137 C 
HETATM   54  O   UNL     1      39.918  68.959  30.718  1.00  0.00    -0.297 OA
BRANCH  53  55
HETATM   55  C   UNL     1      39.901  70.053  28.613  1.00  0.00     0.109 C 
BRANCH  55  56
HETATM   56  C   UNL     1      41.421  69.887  28.628  1.00  0.00     0.279 C 
BRANCH  56  57
HETATM   57  N   UNL     1      42.052  71.214  28.463  1.00  0.00     0.080 N 
HETATM   58  C   UNL     1      41.118  72.167  27.859  1.00  0.00     0.309 C 
HETATM   59  C   UNL     1      42.541  71.736  29.735  1.00  0.00     0.309 C 
ENDBRANCH  56  57
ENDBRANCH  55  56
ENDBRANCH  53  55
ENDBRANCH  40  53
ENDBRANCH  39  40
ENDBRANCH  37  39
BRANCH  37  60
HETATM   60  C   UNL     1      36.557  73.094  29.099  1.00  0.00     0.137 C 
HETATM   61  O   UNL     1      37.717  73.378  28.776  1.00  0.00    -0.297 OA
BRANCH  60  62
HETATM   62  C   UNL     1      35.725  74.153  29.779  1.00  0.00     0.109 C 
BRANCH  62  63
HETATM   63  C   UNL     1      36.531  75.370  30.257  1.00  0.00     0.279 C 
BRANCH  63  64
HETATM   64  N   UNL     1      37.026  75.189  31.638  1.00  0.00     0.080 N 
HETATM   65  C   UNL     1      38.276  75.921  31.860  1.00  0.00     0.309 C 
HETATM   66  C   UNL     1      36.018  75.652  32.598  1.00  0.00     0.309 C 
ENDBRANCH  63  64
ENDBRANCH  62  63
ENDBRANCH  60  62
ENDBRANCH  37  60
ENDBRANCH  36  37
ENDBRANCH  34  36
BRANCH  34  67
HETATM   67  C   UNL     1      32.404  71.587  29.268  1.00  0.00     0.137 C 
HETATM   68  O   UNL     1      32.527  72.559  30.022  1.00  0.00    -0.297 OA
BRANCH  67  69
HETATM   69  C   UNL     1      31.247  71.567  28.258  1.00  0.00     0.109 C 
BRANCH  69  70
HETATM   70  C   UNL     1      29.857  71.602  28.940  1.00  0.00     0.279 C 
BRANCH  70  71
HETATM   71  N   UNL     1      29.286  72.896  29.368  1.00  0.00     0.080 N 
HETATM   72  C   UNL     1      28.093  73.268  28.626  1.00  0.00     0.309 C 
HETATM   73  C   UNL     1      28.937  72.822  30.795  1.00  0.00     0.309 C 
ENDBRANCH  70  71
ENDBRANCH  69  70
ENDBRANCH  67  69
ENDBRANCH  34  67
ENDBRANCH  33  34
ENDBRANCH  31  33
BRANCH  31  74
HETATM   74  C   UNL     1      31.925  67.168  31.400  1.00  0.00     0.139 C 
HETATM   75  O   UNL     1      30.993  66.515  31.887  1.00  0.00    -0.297 OA
BRANCH  74  76
HETATM   76  C   UNL     1      33.340  66.705  31.670  1.00  0.00     0.109 C 
BRANCH  76  77
HETATM   77  C   UNL     1      33.414  66.120  33.068  1.00  0.00     0.279 C 
BRANCH  77  78
HETATM   78  N   UNL     1      34.210  66.905  34.022  1.00  0.00     0.080 N 
HETATM   79  C   UNL     1      33.439  68.024  34.566  1.00  0.00     0.309 C 
HETATM   80  C   UNL     1      35.418  67.415  33.362  1.00  0.00     0.309 C 
ENDBRANCH  77  78
ENDBRANCH  76  77
ENDBRANCH  74  76
ENDBRANCH  31  74
ENDBRANCH  30  31
ENDBRANCH  29  30
ENDBRANCH  23  29
ENDBRANCH  17  18
ENDBRANCH  11  17
BRANCH  12  81
HETATM   81  O   UNL     1      24.573  69.408  28.560  1.00  0.00    -0.390 OA
HETATM   82  H   UNL     1      25.001  68.750  29.146  1.00  0.00     0.210 HD
ENDBRANCH  12  81
BRANCH  13  83
HETATM   83  O   UNL     1      23.492  72.056  28.212  1.00  0.00    -0.388 OA
HETATM   84  H   UNL     1      22.866  71.423  27.826  1.00  0.00     0.210 HD
ENDBRANCH  13  83
ENDBRANCH   7   8
ENDBRANCH   1   7
BRANCH   2  85
HETATM   85  C   UNL     1      21.523  68.644  25.441  1.00  0.00     0.198 C 
BRANCH  85  86
HETATM   86  O   UNL     1      22.518  67.643  25.278  1.00  0.00    -0.398 OA
HETATM   87  H   UNL     1      22.410  66.988  25.990  1.00  0.00     0.209 HD
ENDBRANCH  85  86
ENDBRANCH   2  85
BRANCH   3  88
HETATM   88  O   UNL     1      23.929  71.530  22.920  1.00  0.00    -0.390 OA
HETATM   89  H   UNL     1      23.185  71.950  23.401  1.00  0.00     0.210 HD
ENDBRANCH   3  88
BRANCH   4  90
HETATM   90  O   UNL     1      24.161  69.196  21.220  1.00  0.00    -0.388 OA
HETATM   91  H   UNL     1      24.206  70.117  20.921  1.00  0.00     0.210 HD
ENDBRANCH   4  90
BRANCH   5  92
HETATM   92  O   UNL     1      21.507  69.682  21.229  1.00  0.00    -0.348 OA
BRANCH  92  93
HETATM   93  C   UNL     1      20.778  68.714  20.419  1.00  0.00     0.187 C 
HETATM   94  C   UNL     1      21.096  67.280  20.877  1.00  0.00     0.180 C 
HETATM   95  O   UNL     1      19.932  66.535  21.234  1.00  0.00    -0.348 OA
HETATM   96  C   UNL     1      18.821  66.582  20.341  1.00  0.00     0.292 C 
HETATM   97  C   UNL     1      18.263  68.033  19.997  1.00  0.00     0.208 C 
HETATM   98  C   UNL     1      19.267  69.037  20.638  1.00  0.00     0.183 C 
BRANCH  94  99
HETATM   99  C   UNL     1      21.909  66.471  19.855  1.00  0.00     0.198 C 
BRANCH  99 100
HETATM  100  O   UNL     1      23.173  67.091  19.623  1.00  0.00    -0.398 OA
HETATM  101  H   UNL     1      23.832  66.644  20.191  1.00  0.00     0.209 HD
ENDBRANCH  99 100
ENDBRANCH  94  99
BRANCH  96 102
HETATM  102  O   UNL     1      17.823  65.821  21.020  1.00  0.00    -0.348 OA
BRANCH 102 103
HETATM  103  C   UNL     1      18.240  64.554  21.506  1.00  0.00     0.187 C 
HETATM  104  C   UNL     1      17.737  64.350  22.950  1.00  0.00     0.176 C 
HETATM  105  O   UNL     1      17.435  62.964  23.238  1.00  0.00    -0.378 OA
HETATM  106  C   UNL     1      18.315  62.040  22.590  1.00  0.00     0.202 C 
HETATM  107  C   UNL     1      18.160  62.086  21.054  1.00  0.00     0.173 C 
HETATM  108  C   UNL     1      17.637  63.466  20.599  1.00  0.00     0.180 C 
BRANCH 104 109
HETATM  109  C   UNL     1      18.716  64.875  24.007  1.00  0.00     0.198 C 
BRANCH 109 110
HETATM  110  O   UNL     1      20.036  64.924  23.468  1.00  0.00    -0.398 OA
HETATM  111  H   UNL     1      19.992  64.484  22.596  1.00  0.00     0.209 HD
ENDBRANCH 109 110
ENDBRANCH 104 109
BRANCH 107 112
HETATM  112  O   UNL     1      17.291  61.002  20.558  1.00  0.00    -0.391 OA
HETATM  113  H   UNL     1      17.821  60.369  20.048  1.00  0.00     0.210 HD
ENDBRANCH 107 112
BRANCH 108 114
HETATM  114  O   UNL     1      16.196  63.481  20.620  1.00  0.00    -0.390 OA
HETATM  115  H   UNL     1      15.884  62.893  19.909  1.00  0.00     0.210 HD
ENDBRANCH 108 114
ENDBRANCH 102 103
ENDBRANCH  96 102
BRANCH  97 116
HETATM  116  O   UNL     1      16.838  68.163  20.462  1.00  0.00    -0.369 OA
BRANCH 116 117
HETATM  117  C   UNL     1      15.651  68.392  19.626  1.00  0.00     0.168 C 
BRANCH 117 118
HETATM  118  C   UNL     1      14.243  67.696  19.959  1.00  0.00     0.046 C 
HETATM  119  C   UNL     1      14.459  66.194  19.711  1.00  0.00     0.026 C 
BRANCH 118 120
HETATM  120  C   UNL     1      12.855  68.199  19.240  1.00  0.00     0.036 C 
BRANCH 120 121
HETATM  121  C   UNL     1      12.781  68.743  17.670  1.00  0.00     0.019 C 
HETATM  122  C   UNL     1      11.518  67.995  17.158  1.00  0.00     0.023 C 
BRANCH 121 123
HETATM  123  C   UNL     1      12.611  70.274  17.426  1.00  0.00     0.137 C 
HETATM  124  O   UNL     1      12.537  71.017  18.412  1.00  0.00    -0.297 OA
BRANCH 123 125
HETATM  125  C   UNL     1      12.507  70.875  16.011  1.00  0.00     0.109 C 
BRANCH 125 126
HETATM  126  C   UNL     1      13.226  72.237  15.875  1.00  0.00     0.279 C 
BRANCH 126 127
HETATM  127  N   UNL     1      12.448  73.488  15.976  1.00  0.00     0.080 N 
HETATM  128  C   UNL     1      12.533  74.211  14.701  1.00  0.00     0.309 C 
HETATM  129  C   UNL     1      12.911  74.370  17.034  1.00  0.00     0.309 C 
ENDBRANCH 126 127
ENDBRANCH 125 126
ENDBRANCH 123 125
ENDBRANCH 121 123
BRANCH 121 130
HETATM  130  C   UNL     1      14.083  68.324  16.761  1.00  0.00     0.033 C 
BRANCH 130 131
HETATM  131  C   UNL     1      14.101  67.369  15.388  1.00  0.00     0.019 C 
HETATM  132  C   UNL     1      13.573  65.971  15.750  1.00  0.00     0.023 C 
BRANCH 131 133
HETATM  133  C   UNL     1      13.288  67.840  14.148  1.00  0.00     0.137 C 
HETATM  134  O   UNL     1      13.677  68.816  13.494  1.00  0.00    -0.297 OA
BRANCH 133 135
HETATM  135  C   UNL     1      12.032  67.134  13.696  1.00  0.00     0.109 C 
BRANCH 135 136
HETATM  136  C   UNL     1      11.381  67.727  12.435  1.00  0.00     0.279 C 
BRANCH 136 137
HETATM  137  N   UNL     1      10.306  68.687  12.766  1.00  0.00     0.080 N 
HETATM  138  C   UNL     1       9.564  68.230  13.946  1.00  0.00     0.309 C 
HETATM  139  C   UNL     1       9.376  68.861  11.648  1.00  0.00     0.309 C 
ENDBRANCH 136 137
ENDBRANCH 135 136
ENDBRANCH 133 135
ENDBRANCH 131 133
BRANCH 131 140
HETATM  140  C   UNL     1      15.635  67.239  14.923  1.00  0.00     0.033 C 
BRANCH 140 141
HETATM  141  C   UNL     1      16.411  66.023  14.133  1.00  0.00     0.019 C 
HETATM  142  C   UNL     1      17.727  66.670  13.618  1.00  0.00     0.023 C 
BRANCH 141 143
HETATM  143  C   UNL     1      16.762  64.711  14.924  1.00  0.00     0.033 C 
BRANCH 143 144
HETATM  144  C   UNL     1      17.175  64.603  16.447  1.00  0.00     0.014 C 
HETATM  145  C   UNL     1      16.143  63.651  17.115  1.00  0.00     0.023 C 
HETATM  146  C   UNL     1      17.047  65.920  17.242  1.00  0.00     0.023 C 
BRANCH 144 147
HETATM  147  C   UNL     1      18.615  64.062  16.644  1.00  0.00     0.136 C 
HETATM  148  O   UNL     1      18.834  63.185  17.484  1.00  0.00    -0.297 OA
BRANCH 147 149
HETATM  149  C   UNL     1      19.785  64.672  15.876  1.00  0.00     0.109 C 
BRANCH 149 150
HETATM  150  C   UNL     1      20.410  65.838  16.661  1.00  0.00     0.279 C 
BRANCH 150 151
HETATM  151  N   UNL     1      20.229  67.144  15.991  1.00  0.00     0.080 N 
HETATM  152  C   UNL     1      20.430  68.266  16.908  1.00  0.00     0.309 C 
HETATM  153  C   UNL     1      21.163  67.269  14.865  1.00  0.00     0.309 C 
ENDBRANCH 150 151
ENDBRANCH 149 150
ENDBRANCH 147 149
ENDBRANCH 144 147
ENDBRANCH 143 144
ENDBRANCH 141 143
BRANCH 141 154
HETATM  154  C   UNL     1      15.571  65.697  12.856  1.00  0.00     0.137 C 
HETATM  155  O   UNL     1      14.877  64.678  12.782  1.00  0.00    -0.297 OA
BRANCH 154 156
HETATM  156  C   UNL     1      15.769  66.549  11.622  1.00  0.00     0.109 C 
BRANCH 156 157
HETATM  157  C   UNL     1      14.522  66.639  10.740  1.00  0.00     0.279 C 
BRANCH 157 158
HETATM  158  N   UNL     1      14.615  67.851   9.897  1.00  0.00     0.080 N 
HETATM  159  C   UNL     1      15.025  67.528   8.533  1.00  0.00     0.309 C 
HETATM  160  C   UNL     1      15.543  68.824  10.477  1.00  0.00     0.309 C 
ENDBRANCH 157 158
ENDBRANCH 156 157
ENDBRANCH 154 156
ENDBRANCH 141 154
ENDBRANCH 140 141
ENDBRANCH 131 140
ENDBRANCH 130 131
ENDBRANCH 121 130
ENDBRANCH 120 121
ENDBRANCH 118 120
BRANCH 118 161
HETATM  161  C   UNL     1      14.093  68.138  21.443  1.00  0.00     0.139 C 
HETATM  162  O   UNL     1      13.950  69.328  21.752  1.00  0.00    -0.297 OA
BRANCH 161 163
HETATM  163  C   UNL     1      14.246  67.128  22.554  1.00  0.00     0.109 C 
BRANCH 163 164
HETATM  164  C   UNL     1      13.825  67.756  23.863  1.00  0.00     0.279 C 
BRANCH 164 165
HETATM  165  N   UNL     1      14.918  68.067  24.795  1.00  0.00     0.080 N 
HETATM  166  C   UNL     1      15.673  66.862  25.141  1.00  0.00     0.309 C 
HETATM  167  C   UNL     1      14.362  68.646  26.022  1.00  0.00     0.309 C 
ENDBRANCH 164 165
ENDBRANCH 163 164
ENDBRANCH 161 163
ENDBRANCH 118 161
ENDBRANCH 117 118
ENDBRANCH 116 117
ENDBRANCH  97 116
BRANCH  98 168
HETATM  168  O   UNL     1      19.017  69.110  22.059  1.00  0.00    -0.390 OA
HETATM  169  H   UNL     1      18.281  69.743  22.176  1.00  0.00     0.210 HD
ENDBRANCH  98 168
ENDBRANCH  92  93
ENDBRANCH   5  92
TORSDOF 88
ENDMDL
MODEL 8
REMARK VINA RESULT:      -5.4      6.309     13.827
REMARK WARNING: 32 MAX_TORS EXCEEDED!!!
REMARK  88 active torsions:
REMARK  status: ('A' for Active; 'I' for Inactive)
REMARK    1  A    between atoms: C_1  and  O_28 
REMARK    2  A    between atoms: C_2  and  C_6 
REMARK    3  A    between atoms: C_3  and  O_8 
REMARK    4  A    between atoms: C_4  and  O_10 
REMARK    5  A    between atoms: C_5  and  O_11 
REMARK    6  A    between atoms: C_6  and  O_58 
REMARK    7  A    between atoms: O_11  and  C_18 
REMARK    8  A    between atoms: O_13  and  C_16 
REMARK    9  A    between atoms: C_15  and  C_21 
REMARK   10  A    between atoms: O_17  and  C_20 
REMARK   11  A    between atoms: O_17  and  C_39 
REMARK   12  A    between atoms: O_19  and  C_22 
REMARK   13  A    between atoms: O_19  and  C_153 
REMARK   14  A    between atoms: C_21  and  O_60 
REMARK   15  A    between atoms: O_24  and  C_27 
REMARK   16  A    between atoms: C_26  and  C_32 
REMARK   17  A    between atoms: O_28  and  C_31 
REMARK   18  A    between atoms: C_29  and  O_49 
REMARK   19  A    between atoms: O_30  and  C_33 
REMARK   20  A    between atoms: C_32  and  O_56 
REMARK   21  A    between atoms: O_35  and  C_38 
REMARK   22  A    between atoms: C_37  and  C_42 
REMARK   23  A    between atoms: O_40  and  C_43 
REMARK   24  A    between atoms: C_42  and  O_62 
REMARK   25  A    between atoms: O_45  and  C_48 
REMARK   26  A    between atoms: C_47  and  C_53 
REMARK   27  A    between atoms: O_49  and  C_52 
REMARK   28  A    between atoms: O_51  and  C_54 
REMARK   29  A    between atoms: O_51  and  C_64 
REMARK   30  A    between atoms: C_53  and  O_55 
REMARK   31  A    between atoms: C_64  and  C_65 
REMARK   32  A    between atoms: C_65  and  C_66 
REMARK   33  A    between atoms: C_65  and  C_75 
REMARK   34  A    between atoms: C_66  and  C_67 
REMARK   35  A    between atoms: C_67  and  C_68 
REMARK   36  A    between atoms: C_67  and  C_79 
REMARK   37  A    between atoms: C_68  and  C_69 
REMARK   38  A    between atoms: C_69  and  C_70 
REMARK   39  A    between atoms: C_69  and  C_83 
REMARK   40  A    between atoms: C_70  and  C_71 
REMARK   41  A    between atoms: C_71  and  C_72 
REMARK   42  A    between atoms: C_71  and  C_87 
REMARK   43  A    between atoms: C_72  and  C_73 
REMARK   44  A    between atoms: C_73  and  C_91 
REMARK   45  A    between atoms: C_75  and  C_76 
REMARK   46  A    between atoms: C_76  and  C_77 
REMARK   47  A    between atoms: C_77  and  N_95 
REMARK   48  A    between atoms: C_79  and  C_80 
REMARK   49  A    between atoms: C_80  and  C_81 
REMARK   50  A    between atoms: C_81  and  N_96 
REMARK   51  A    between atoms: C_83  and  C_84 
REMARK   52  A    between atoms: C_84  and  C_85 
REMARK   53  A    between atoms: C_85  and  N_97 
REMARK   54  A    between atoms: C_87  and  C_88 
REMARK   55  A    between atoms: C_88  and  C_89 
REMARK   56  A    between atoms: C_89  and  N_98 
REMARK   57  A    between atoms: C_91  and  C_92 
REMARK   58  A    between atoms: C_92  and  C_93 
REMARK   59  A    between atoms: C_93  and  N_99 
REMARK   60  A    between atoms: N_118  and  C_121 
REMARK   61  A    between atoms: C_121  and  C_127 
REMARK   62  A    between atoms: C_122  and  C_127 
REMARK   63  A    between atoms: C_122  and  C_134 
REMARK   64  A    between atoms: N_124  and  C_131 
REMARK   65  A    between atoms: C_128  and  C_129 
REMARK   66  A    between atoms: C_128  and  C_138 
REMARK   67  A    between atoms: C_129  and  C_131 
REMARK   68  A    between atoms: N_133  and  C_144 
REMARK   69  A    between atoms: C_134  and  C_145 
REMARK   70  A    between atoms: C_134  and  C_151 
REMARK   71  A    between atoms: C_136  and  C_144 
REMARK   72  A    between atoms: C_136  and  C_148 
REMARK   73  A    between atoms: C_138  and  C_154 
REMARK   74  A    between atoms: C_138  and  C_145 
REMARK   75  A    between atoms: C_140  and  C_148 
REMARK   76  A    between atoms: C_140  and  C_141 
REMARK   77  A    between atoms: C_141  and  C_155 
REMARK   78  A    between atoms: C_142  and  C_153 
REMARK   79  A    between atoms: C_142  and  C_151 
REMARK   80  A    between atoms: C_142  and  C_152 
REMARK   81  A    between atoms: C_143  and  N_149 
REMARK   82  A    between atoms: C_143  and  C_146 
REMARK   83  A    between atoms: C_146  and  C_152 
REMARK   84  A    between atoms: C_154  and  C_155 
REMARK   85  A    between atoms: C_155  and  C_161 
REMARK   86  A    between atoms: C_158  and  C_163 
REMARK   87  A    between atoms: C_158  and  C_161 
REMARK   88  A    between atoms: N_159  and  C_163 
ROOT
HETATM    1  C   UNL     1      18.731  66.384  17.346  1.00  0.00     0.187 C 
HETATM    2  C   UNL     1      18.283  66.425  18.824  1.00  0.00     0.180 C 
HETATM    3  C   UNL     1      20.122  67.029  17.175  1.00  0.00     0.183 C 
HETATM    4  C   UNL     1      20.234  68.360  17.957  1.00  0.00     0.204 C 
HETATM    5  C   UNL     1      19.863  68.154  19.467  1.00  0.00     0.292 C 
HETATM    6  O   UNL     1      19.351  66.837  19.698  1.00  0.00    -0.348 OA
ENDROOT
BRANCH   1   7
HETATM    7  O   UNL     1      18.791  65.012  16.932  1.00  0.00    -0.348 OA
BRANCH   7   8
HETATM    8  C   UNL     1      18.455  64.776  15.557  1.00  0.00     0.292 C 
HETATM    9  O   UNL     1      17.479  65.753  15.205  1.00  0.00    -0.348 OA
HETATM   10  C   UNL     1      16.784  65.562  13.962  1.00  0.00     0.180 C 
HETATM   11  C   UNL     1      16.373  64.105  13.663  1.00  0.00     0.187 C 
HETATM   12  C   UNL     1      16.543  63.205  14.881  1.00  0.00     0.183 C 
HETATM   13  C   UNL     1      17.991  63.290  15.374  1.00  0.00     0.204 C 
BRANCH  10  14
HETATM   14  C   UNL     1      17.633  66.166  12.832  1.00  0.00     0.198 C 
BRANCH  14  15
HETATM   15  O   UNL     1      16.806  66.539  11.730  1.00  0.00    -0.398 OA
HETATM   16  H   UNL     1      17.136  67.401  11.412  1.00  0.00     0.209 HD
ENDBRANCH  14  15
ENDBRANCH  10  14
BRANCH  11  17
HETATM   17  O   UNL     1      14.981  64.061  13.309  1.00  0.00    -0.348 OA
BRANCH  17  18
HETATM   18  C   UNL     1      14.755  63.693  11.953  1.00  0.00     0.292 C 
HETATM   19  O   UNL     1      16.021  63.555  11.295  1.00  0.00    -0.351 OA
HETATM   20  C   UNL     1      15.927  62.781  10.082  1.00  0.00     0.150 C 
HETATM   21  C   UNL     1      14.587  63.041   9.368  1.00  0.00     0.068 C 
HETATM   22  C   UNL     1      14.122  64.478   9.652  1.00  0.00     0.154 C 
HETATM   23  C   UNL     1      13.847  64.728  11.174  1.00  0.00     0.205 C 
BRANCH  20  24
HETATM   24  C   UNL     1      16.247  61.303  10.353  1.00  0.00     0.196 C 
BRANCH  24  25
HETATM   25  O   UNL     1      17.193  61.156  11.408  1.00  0.00    -0.398 OA
HETATM   26  H   UNL     1      16.758  61.320  12.259  1.00  0.00     0.209 HD
ENDBRANCH  24  25
ENDBRANCH  20  24
BRANCH  22  27
HETATM   27  O   UNL     1      15.162  65.355   9.188  1.00  0.00    -0.393 OA
HETATM   28  H   UNL     1      14.968  66.248   9.537  1.00  0.00     0.210 HD
ENDBRANCH  22  27
BRANCH  23  29
HETATM   29  O   UNL     1      14.107  66.154  11.551  1.00  0.00    -0.377 OA
BRANCH  29  30
HETATM   30  C   UNL     1      12.968  66.964  12.061  1.00  0.00     0.185 C 
BRANCH  30  31
HETATM   31  C   UNL     1      13.335  68.485  12.459  1.00  0.00     0.039 C 
HETATM   32  C   UNL     1      12.042  69.312  12.519  1.00  0.00     0.025 C 
BRANCH  31  33
HETATM   33  C   UNL     1      14.411  69.153  11.444  1.00  0.00     0.036 C 
BRANCH  33  34
HETATM   34  C   UNL     1      14.170  69.413   9.852  1.00  0.00     0.019 C 
HETATM   35  C   UNL     1      15.548  69.068   9.226  1.00  0.00     0.023 C 
BRANCH  34  36
HETATM   36  C   UNL     1      13.817  70.979   9.621  1.00  0.00     0.033 C 
BRANCH  36  37
HETATM   37  C   UNL     1      14.032  71.892   8.275  1.00  0.00     0.019 C 
HETATM   38  C   UNL     1      13.450  71.157   7.056  1.00  0.00     0.023 C 
BRANCH  37  39
HETATM   39  C   UNL     1      15.620  72.030   8.104  1.00  0.00     0.033 C 
BRANCH  39  40
HETATM   40  C   UNL     1      16.596  71.596   6.876  1.00  0.00     0.019 C 
HETATM   41  C   UNL     1      17.951  71.257   7.556  1.00  0.00     0.023 C 
BRANCH  40  42
HETATM   42  C   UNL     1      16.150  70.394   5.978  1.00  0.00     0.033 C 
BRANCH  42  43
HETATM   43  C   UNL     1      17.039  69.624   4.927  1.00  0.00     0.014 C 
HETATM   44  C   UNL     1      16.986  68.123   5.326  1.00  0.00     0.023 C 
HETATM   45  C   UNL     1      18.538  69.981   4.974  1.00  0.00     0.023 C 
BRANCH  43  46
HETATM   46  C   UNL     1      16.539  69.820   3.475  1.00  0.00     0.136 C 
HETATM   47  O   UNL     1      17.351  69.889   2.547  1.00  0.00    -0.297 OA
BRANCH  46  48
HETATM   48  C   UNL     1      15.054  70.030   3.189  1.00  0.00     0.109 C 
BRANCH  48  49
HETATM   49  C   UNL     1      14.490  68.863   2.362  1.00  0.00     0.279 C 
BRANCH  49  50
HETATM   50  N   UNL     1      13.936  67.781   3.203  1.00  0.00     0.080 N 
HETATM   51  C   UNL     1      13.324  68.297   4.428  1.00  0.00     0.309 C 
HETATM   52  C   UNL     1      12.936  67.016   2.450  1.00  0.00     0.309 C 
ENDBRANCH  49  50
ENDBRANCH  48  49
ENDBRANCH  46  48
ENDBRANCH  43  46
ENDBRANCH  42  43
ENDBRANCH  40  42
BRANCH  40  53
HETATM   53  C   UNL     1      16.858  72.883   6.027  1.00  0.00     0.137 C 
HETATM   54  O   UNL     1      17.787  73.643   6.277  1.00  0.00    -0.297 OA
BRANCH  53  55
HETATM   55  C   UNL     1      15.817  73.292   5.004  1.00  0.00     0.109 C 
BRANCH  55  56
HETATM   56  C   UNL     1      16.398  74.133   3.866  1.00  0.00     0.279 C 
BRANCH  56  57
HETATM   57  N   UNL     1      16.364  75.559   4.255  1.00  0.00     0.080 N 
HETATM   58  C   UNL     1      17.598  76.240   3.855  1.00  0.00     0.309 C 
HETATM   59  C   UNL     1      15.210  76.243   3.680  1.00  0.00     0.309 C 
ENDBRANCH  56  57
ENDBRANCH  55  56
ENDBRANCH  53  55
ENDBRANCH  40  53
ENDBRANCH  39  40
ENDBRANCH  37  39
BRANCH  37  60
HETATM   60  C   UNL     1      13.414  73.316   8.266  1.00  0.00     0.137 C 
HETATM   61  O   UNL     1      13.759  74.139   9.122  1.00  0.00    -0.297 OA
BRANCH  60  62
HETATM   62  C   UNL     1      12.417  73.748   7.219  1.00  0.00     0.109 C 
BRANCH  62  63
HETATM   63  C   UNL     1      12.772  75.073   6.528  1.00  0.00     0.279 C 
BRANCH  63  64
HETATM   64  N   UNL     1      12.188  75.158   5.173  1.00  0.00     0.080 N 
HETATM   65  C   UNL     1      11.350  73.994   4.877  1.00  0.00     0.309 C 
HETATM   66  C   UNL     1      11.383  76.378   5.049  1.00  0.00     0.309 C 
ENDBRANCH  63  64
ENDBRANCH  62  63
ENDBRANCH  60  62
ENDBRANCH  37  60
ENDBRANCH  36  37
ENDBRANCH  34  36
BRANCH  34  67
HETATM   67  C   UNL     1      13.067  68.595   9.115  1.00  0.00     0.137 C 
HETATM   68  O   UNL     1      13.411  67.618   8.441  1.00  0.00    -0.297 OA
BRANCH  67  69
HETATM   69  C   UNL     1      11.581  68.979   9.170  1.00  0.00     0.109 C 
BRANCH  69  70
HETATM   70  C   UNL     1      10.643  67.787   8.854  1.00  0.00     0.279 C 
BRANCH  70  71
HETATM   71  N   UNL     1       9.740  67.859   7.687  1.00  0.00     0.080 N 
HETATM   72  C   UNL     1      10.265  68.677   6.606  1.00  0.00     0.309 C 
HETATM   73  C   UNL     1       9.514  66.501   7.167  1.00  0.00     0.309 C 
ENDBRANCH  70  71
ENDBRANCH  69  70
ENDBRANCH  67  69
ENDBRANCH  34  67
ENDBRANCH  33  34
ENDBRANCH  31  33
BRANCH  31  74
HETATM   74  C   UNL     1      14.064  68.329  13.817  1.00  0.00     0.139 C 
HETATM   75  O   UNL     1      15.300  68.393  13.877  1.00  0.00    -0.297 OA
BRANCH  74  76
HETATM   76  C   UNL     1      13.305  67.956  15.070  1.00  0.00     0.109 C 
BRANCH  76  77
HETATM   77  C   UNL     1      14.290  67.765  16.210  1.00  0.00     0.279 C 
BRANCH  77  78
HETATM   78  N   UNL     1      13.898  68.405  17.474  1.00  0.00     0.080 N 
HETATM   79  C   UNL     1      13.329  67.433  18.409  1.00  0.00     0.309 C 
HETATM   80  C   UNL     1      12.921  69.467  17.213  1.00  0.00     0.309 C 
ENDBRANCH  77  78
ENDBRANCH  76  77
ENDBRANCH  74  76
ENDBRANCH  31  74
ENDBRANCH  30  31
ENDBRANCH  29  30
ENDBRANCH  23  29
ENDBRANCH  17  18
ENDBRANCH  11  17
BRANCH  12  81
HETATM   81  O   UNL     1      15.612  63.563  15.911  1.00  0.00    -0.390 OA
HETATM   82  H   UNL     1      16.019  63.241  16.741  1.00  0.00     0.210 HD
ENDBRANCH  12  81
BRANCH  13  83
HETATM   83  O   UNL     1      18.175  62.408  16.545  1.00  0.00    -0.388 OA
HETATM   84  H   UNL     1      17.370  62.416  17.086  1.00  0.00     0.210 HD
ENDBRANCH  13  83
ENDBRANCH   7   8
ENDBRANCH   1   7
BRANCH   2  85
HETATM   85  C   UNL     1      17.016  67.285  18.992  1.00  0.00     0.198 C 
BRANCH  85  86
HETATM   86  O   UNL     1      16.578  67.314  20.343  1.00  0.00    -0.398 OA
HETATM   87  H   UNL     1      16.571  68.241  20.641  1.00  0.00     0.209 HD
ENDBRANCH  85  86
ENDBRANCH   2  85
BRANCH   3  88
HETATM   88  O   UNL     1      21.159  66.125  17.590  1.00  0.00    -0.390 OA
HETATM   89  H   UNL     1      21.127  66.087  18.569  1.00  0.00     0.210 HD
ENDBRANCH   3  88
BRANCH   4  90
HETATM   90  O   UNL     1      21.562  68.989  17.765  1.00  0.00    -0.388 OA
HETATM   91  H   UNL     1      21.849  68.863  16.847  1.00  0.00     0.210 HD
ENDBRANCH   4  90
BRANCH   5  92
HETATM   92  O   UNL     1      21.023  68.293  20.315  1.00  0.00    -0.348 OA
BRANCH  92  93
HETATM   93  C   UNL     1      20.977  69.356  21.310  1.00  0.00     0.187 C 
HETATM   94  C   UNL     1      19.603  69.385  22.004  1.00  0.00     0.180 C 
HETATM   95  O   UNL     1      19.690  69.264  23.423  1.00  0.00    -0.348 OA
HETATM   96  C   UNL     1      20.650  70.075  24.096  1.00  0.00     0.292 C 
HETATM   97  C   UNL     1      22.157  69.928  23.601  1.00  0.00     0.208 C 
HETATM   98  C   UNL     1      22.102  69.018  22.338  1.00  0.00     0.183 C 
BRANCH  94  99
HETATM   99  C   UNL     1      18.765  70.626  21.661  1.00  0.00     0.198 C 
BRANCH  99 100
HETATM  100  O   UNL     1      19.126  71.130  20.376  1.00  0.00    -0.398 OA
HETATM  101  H   UNL     1      19.410  72.059  20.490  1.00  0.00     0.209 HD
ENDBRANCH  99 100
ENDBRANCH  94  99
BRANCH  96 102
HETATM  102  O   UNL     1      20.538  69.658  25.456  1.00  0.00    -0.348 OA
BRANCH 102 103
HETATM  103  C   UNL     1      19.275  69.133  25.835  1.00  0.00     0.187 C 
HETATM  104  C   UNL     1      19.465  67.937  26.791  1.00  0.00     0.176 C 
HETATM  105  O   UNL     1      18.399  67.835  27.766  1.00  0.00    -0.378 OA
HETATM  106  C   UNL     1      17.119  68.218  27.254  1.00  0.00     0.202 C 
HETATM  107  C   UNL     1      17.074  69.719  26.892  1.00  0.00     0.173 C 
HETATM  108  C   UNL     1      18.489  70.242  26.558  1.00  0.00     0.180 C 
BRANCH 104 109
HETATM  109  C   UNL     1      19.597  66.596  26.058  1.00  0.00     0.198 C 
BRANCH 109 110
HETATM  110  O   UNL     1      20.514  66.724  24.972  1.00  0.00    -0.398 OA
HETATM  111  H   UNL     1      19.978  66.949  24.187  1.00  0.00     0.209 HD
ENDBRANCH 109 110
ENDBRANCH 104 109
BRANCH 107 112
HETATM  112  O   UNL     1      16.453  70.523  27.961  1.00  0.00    -0.391 OA
HETATM  113  H   UNL     1      15.923  71.233  27.566  1.00  0.00     0.210 HD
ENDBRANCH 107 112
BRANCH 108 114
HETATM  114  O   UNL     1      19.152  70.679  27.761  1.00  0.00    -0.390 OA
HETATM  115  H   UNL     1      19.023  71.643  27.835  1.00  0.00     0.210 HD
ENDBRANCH 108 114
ENDBRANCH 102 103
ENDBRANCH  96 102
BRANCH  97 116
HETATM  116  O   UNL     1      23.023  69.422  24.722  1.00  0.00    -0.369 OA
BRANCH 116 117
HETATM  117  C   UNL     1      24.458  69.672  24.916  1.00  0.00     0.168 C 
BRANCH 117 118
HETATM  118  C   UNL     1      25.060  70.038  26.358  1.00  0.00     0.046 C 
HETATM  119  C   UNL     1      26.584  69.901  26.213  1.00  0.00     0.026 C 
BRANCH 118 120
HETATM  120  C   UNL     1      24.544  69.271  27.715  1.00  0.00     0.036 C 
BRANCH 120 121
HETATM  121  C   UNL     1      25.251  67.887  28.310  1.00  0.00     0.019 C 
HETATM  122  C   UNL     1      24.503  67.731  29.663  1.00  0.00     0.023 C 
BRANCH 121 123
HETATM  123  C   UNL     1      25.108  66.572  27.484  1.00  0.00     0.137 C 
HETATM  124  O   UNL     1      25.656  66.515  26.376  1.00  0.00    -0.297 OA
BRANCH 123 125
HETATM  125  C   UNL     1      24.290  65.367  27.990  1.00  0.00     0.109 C 
BRANCH 125 126
HETATM  126  C   UNL     1      22.824  65.380  27.499  1.00  0.00     0.279 C 
BRANCH 126 127
HETATM  127  N   UNL     1      21.900  64.311  27.927  1.00  0.00     0.080 N 
HETATM  128  C   UNL     1      21.158  64.762  29.111  1.00  0.00     0.309 C 
HETATM  129  C   UNL     1      22.573  63.066  28.255  1.00  0.00     0.309 C 
ENDBRANCH 126 127
ENDBRANCH 125 126
ENDBRANCH 123 125
ENDBRANCH 121 123
BRANCH 121 130
HETATM  130  C   UNL     1      26.865  68.029  28.579  1.00  0.00     0.033 C 
BRANCH 130 131
HETATM  131  C   UNL     1      27.806  67.124  29.623  1.00  0.00     0.019 C 
HETATM  132  C   UNL     1      27.309  67.352  31.061  1.00  0.00     0.023 C 
BRANCH 131 133
HETATM  133  C   UNL     1      27.869  65.583  29.417  1.00  0.00     0.137 C 
HETATM  134  O   UNL     1      28.399  65.123  28.399  1.00  0.00    -0.297 OA
BRANCH 133 135
HETATM  135  C   UNL     1      27.312  64.614  30.432  1.00  0.00     0.109 C 
BRANCH 135 136
HETATM  136  C   UNL     1      28.374  63.892  31.279  1.00  0.00     0.279 C 
BRANCH 136 137
HETATM  137  N   UNL     1      27.950  63.745  32.689  1.00  0.00     0.080 N 
HETATM  138  C   UNL     1      28.155  62.364  33.139  1.00  0.00     0.309 C 
HETATM  139  C   UNL     1      26.543  64.108  32.869  1.00  0.00     0.309 C 
ENDBRANCH 136 137
ENDBRANCH 135 136
ENDBRANCH 133 135
ENDBRANCH 131 133
BRANCH 131 140
HETATM  140  C   UNL     1      29.312  67.677  29.502  1.00  0.00     0.033 C 
BRANCH 140 141
HETATM  141  C   UNL     1      29.967  68.767  28.460  1.00  0.00     0.019 C 
HETATM  142  C   UNL     1      29.696  68.172  27.051  1.00  0.00     0.023 C 
BRANCH 141 143
HETATM  143  C   UNL     1      29.451  70.252  28.497  1.00  0.00     0.033 C 
BRANCH 143 144
HETATM  144  C   UNL     1      28.829  71.010  29.738  1.00  0.00     0.014 C 
HETATM  145  C   UNL     1      29.401  70.318  31.007  1.00  0.00     0.023 C 
HETATM  146  C   UNL     1      27.299  70.860  29.881  1.00  0.00     0.023 C 
BRANCH 144 147
HETATM  147  C   UNL     1      29.165  72.524  29.750  1.00  0.00     0.136 C 
HETATM  148  O   UNL     1      30.343  72.893  29.759  1.00  0.00    -0.297 OA
BRANCH 147 149
HETATM  149  C   UNL     1      28.053  73.566  29.850  1.00  0.00     0.109 C 
BRANCH 149 150
HETATM  150  C   UNL     1      27.918  74.089  31.290  1.00  0.00     0.279 C 
BRANCH 150 151
HETATM  151  N   UNL     1      26.557  74.582  31.596  1.00  0.00     0.080 N 
HETATM  152  C   UNL     1      26.581  75.846  32.332  1.00  0.00     0.309 C 
HETATM  153  C   UNL     1      25.793  74.762  30.355  1.00  0.00     0.309 C 
ENDBRANCH 150 151
ENDBRANCH 149 150
ENDBRANCH 147 149
ENDBRANCH 144 147
ENDBRANCH 143 144
ENDBRANCH 141 143
BRANCH 141 154
HETATM  154  C   UNL     1      31.517  68.712  28.654  1.00  0.00     0.137 C 
HETATM  155  O   UNL     1      32.113  67.639  28.794  1.00  0.00    -0.297 OA
BRANCH 154 156
HETATM  156  C   UNL     1      32.267  70.009  28.866  1.00  0.00     0.109 C 
BRANCH 156 157
HETATM  157  C   UNL     1      33.015  70.489  27.620  1.00  0.00     0.279 C 
BRANCH 157 158
HETATM  158  N   UNL     1      34.429  70.740  27.973  1.00  0.00     0.080 N 
HETATM  159  C   UNL     1      35.019  71.774  27.128  1.00  0.00     0.309 C 
HETATM  160  C   UNL     1      35.219  69.510  27.879  1.00  0.00     0.309 C 
ENDBRANCH 157 158
ENDBRANCH 156 157
ENDBRANCH 154 156
ENDBRANCH 141 154
ENDBRANCH 140 141
ENDBRANCH 131 140
ENDBRANCH 130 131
ENDBRANCH 121 130
ENDBRANCH 120 121
ENDBRANCH 118 120
BRANCH 118 161
HETATM  161  C   UNL     1      24.506  71.485  26.497  1.00  0.00     0.139 C 
HETATM  162  O   UNL     1      24.161  72.144  25.507  1.00  0.00    -0.297 OA
BRANCH 161 163
HETATM  163  C   UNL     1      24.493  72.166  27.844  1.00  0.00     0.109 C 
BRANCH 163 164
HETATM  164  C   UNL     1      23.066  72.482  28.231  1.00  0.00     0.279 C 
BRANCH 164 165
HETATM  165  N   UNL     1      22.800  72.533  29.676  1.00  0.00     0.080 N 
HETATM  166  C   UNL     1      23.685  71.625  30.407  1.00  0.00     0.309 C 
HETATM  167  C   UNL     1      21.409  72.143  29.929  1.00  0.00     0.309 C 
ENDBRANCH 164 165
ENDBRANCH 163 164
ENDBRANCH 161 163
ENDBRANCH 118 161
ENDBRANCH 117 118
ENDBRANCH 116 117
ENDBRANCH  97 116
BRANCH  98 168
HETATM  168  O   UNL     1      21.943  67.644  22.754  1.00  0.00    -0.390 OA
HETATM  169  H   UNL     1      21.682  67.672  23.696  1.00  0.00     0.210 HD
ENDBRANCH  98 168
ENDBRANCH  92  93
ENDBRANCH   5  92
TORSDOF 88
ENDMDL
MODEL 9
REMARK VINA RESULT:      -5.2      3.244      8.653
REMARK WARNING: 32 MAX_TORS EXCEEDED!!!
REMARK  88 active torsions:
REMARK  status: ('A' for Active; 'I' for Inactive)
REMARK    1  A    between atoms: C_1  and  O_28 
REMARK    2  A    between atoms: C_2  and  C_6 
REMARK    3  A    between atoms: C_3  and  O_8 
REMARK    4  A    between atoms: C_4  and  O_10 
REMARK    5  A    between atoms: C_5  and  O_11 
REMARK    6  A    between atoms: C_6  and  O_58 
REMARK    7  A    between atoms: O_11  and  C_18 
REMARK    8  A    between atoms: O_13  and  C_16 
REMARK    9  A    between atoms: C_15  and  C_21 
REMARK   10  A    between atoms: O_17  and  C_20 
REMARK   11  A    between atoms: O_17  and  C_39 
REMARK   12  A    between atoms: O_19  and  C_22 
REMARK   13  A    between atoms: O_19  and  C_153 
REMARK   14  A    between atoms: C_21  and  O_60 
REMARK   15  A    between atoms: O_24  and  C_27 
REMARK   16  A    between atoms: C_26  and  C_32 
REMARK   17  A    between atoms: O_28  and  C_31 
REMARK   18  A    between atoms: C_29  and  O_49 
REMARK   19  A    between atoms: O_30  and  C_33 
REMARK   20  A    between atoms: C_32  and  O_56 
REMARK   21  A    between atoms: O_35  and  C_38 
REMARK   22  A    between atoms: C_37  and  C_42 
REMARK   23  A    between atoms: O_40  and  C_43 
REMARK   24  A    between atoms: C_42  and  O_62 
REMARK   25  A    between atoms: O_45  and  C_48 
REMARK   26  A    between atoms: C_47  and  C_53 
REMARK   27  A    between atoms: O_49  and  C_52 
REMARK   28  A    between atoms: O_51  and  C_54 
REMARK   29  A    between atoms: O_51  and  C_64 
REMARK   30  A    between atoms: C_53  and  O_55 
REMARK   31  A    between atoms: C_64  and  C_65 
REMARK   32  A    between atoms: C_65  and  C_66 
REMARK   33  A    between atoms: C_65  and  C_75 
REMARK   34  A    between atoms: C_66  and  C_67 
REMARK   35  A    between atoms: C_67  and  C_68 
REMARK   36  A    between atoms: C_67  and  C_79 
REMARK   37  A    between atoms: C_68  and  C_69 
REMARK   38  A    between atoms: C_69  and  C_70 
REMARK   39  A    between atoms: C_69  and  C_83 
REMARK   40  A    between atoms: C_70  and  C_71 
REMARK   41  A    between atoms: C_71  and  C_72 
REMARK   42  A    between atoms: C_71  and  C_87 
REMARK   43  A    between atoms: C_72  and  C_73 
REMARK   44  A    between atoms: C_73  and  C_91 
REMARK   45  A    between atoms: C_75  and  C_76 
REMARK   46  A    between atoms: C_76  and  C_77 
REMARK   47  A    between atoms: C_77  and  N_95 
REMARK   48  A    between atoms: C_79  and  C_80 
REMARK   49  A    between atoms: C_80  and  C_81 
REMARK   50  A    between atoms: C_81  and  N_96 
REMARK   51  A    between atoms: C_83  and  C_84 
REMARK   52  A    between atoms: C_84  and  C_85 
REMARK   53  A    between atoms: C_85  and  N_97 
REMARK   54  A    between atoms: C_87  and  C_88 
REMARK   55  A    between atoms: C_88  and  C_89 
REMARK   56  A    between atoms: C_89  and  N_98 
REMARK   57  A    between atoms: C_91  and  C_92 
REMARK   58  A    between atoms: C_92  and  C_93 
REMARK   59  A    between atoms: C_93  and  N_99 
REMARK   60  A    between atoms: N_118  and  C_121 
REMARK   61  A    between atoms: C_121  and  C_127 
REMARK   62  A    between atoms: C_122  and  C_127 
REMARK   63  A    between atoms: C_122  and  C_134 
REMARK   64  A    between atoms: N_124  and  C_131 
REMARK   65  A    between atoms: C_128  and  C_129 
REMARK   66  A    between atoms: C_128  and  C_138 
REMARK   67  A    between atoms: C_129  and  C_131 
REMARK   68  A    between atoms: N_133  and  C_144 
REMARK   69  A    between atoms: C_134  and  C_145 
REMARK   70  A    between atoms: C_134  and  C_151 
REMARK   71  A    between atoms: C_136  and  C_144 
REMARK   72  A    between atoms: C_136  and  C_148 
REMARK   73  A    between atoms: C_138  and  C_154 
REMARK   74  A    between atoms: C_138  and  C_145 
REMARK   75  A    between atoms: C_140  and  C_148 
REMARK   76  A    between atoms: C_140  and  C_141 
REMARK   77  A    between atoms: C_141  and  C_155 
REMARK   78  A    between atoms: C_142  and  C_153 
REMARK   79  A    between atoms: C_142  and  C_151 
REMARK   80  A    between atoms: C_142  and  C_152 
REMARK   81  A    between atoms: C_143  and  N_149 
REMARK   82  A    between atoms: C_143  and  C_146 
REMARK   83  A    between atoms: C_146  and  C_152 
REMARK   84  A    between atoms: C_154  and  C_155 
REMARK   85  A    between atoms: C_155  and  C_161 
REMARK   86  A    between atoms: C_158  and  C_163 
REMARK   87  A    between atoms: C_158  and  C_161 
REMARK   88  A    between atoms: N_159  and  C_163 
ROOT
HETATM    1  C   UNL     1      25.384  69.616  25.716  1.00  0.00     0.187 C 
HETATM    2  C   UNL     1      25.606  69.183  27.182  1.00  0.00     0.180 C 
HETATM    3  C   UNL     1      26.682  69.465  24.896  1.00  0.00     0.183 C 
HETATM    4  C   UNL     1      27.909  70.014  25.664  1.00  0.00     0.204 C 
HETATM    5  C   UNL     1      28.026  69.346  27.078  1.00  0.00     0.292 C 
HETATM    6  O   UNL     1      26.880  68.538  27.365  1.00  0.00    -0.348 OA
ENDROOT
BRANCH   1   7
HETATM    7  O   UNL     1      24.366  68.780  25.148  1.00  0.00    -0.348 OA
BRANCH   7   8
HETATM    8  C   UNL     1      23.093  69.415  24.958  1.00  0.00     0.292 C 
HETATM    9  O   UNL     1      22.107  68.490  25.409  1.00  0.00    -0.348 OA
HETATM   10  C   UNL     1      20.740  68.779  25.075  1.00  0.00     0.180 C 
HETATM   11  C   UNL     1      20.517  69.310  23.644  1.00  0.00     0.187 C 
HETATM   12  C   UNL     1      21.763  69.156  22.779  1.00  0.00     0.183 C 
HETATM   13  C   UNL     1      22.941  69.857  23.462  1.00  0.00     0.204 C 
BRANCH  10  14
HETATM   14  C   UNL     1      20.172  69.732  26.139  1.00  0.00     0.198 C 
BRANCH  14  15
HETATM   15  O   UNL     1      19.654  70.913  25.527  1.00  0.00    -0.398 OA
HETATM   16  H   UNL     1      19.707  71.622  26.197  1.00  0.00     0.209 HD
ENDBRANCH  14  15
ENDBRANCH  10  14
BRANCH  11  17
HETATM   17  O   UNL     1      19.477  68.552  23.006  1.00  0.00    -0.348 OA
BRANCH  17  18
HETATM   18  C   UNL     1      18.222  69.224  22.983  1.00  0.00     0.292 C 
HETATM   19  O   UNL     1      17.228  68.365  23.555  1.00  0.00    -0.351 OA
HETATM   20  C   UNL     1      16.053  69.088  23.973  1.00  0.00     0.150 C 
HETATM   21  C   UNL     1      15.760  70.259  23.015  1.00  0.00     0.068 C 
HETATM   22  C   UNL     1      16.238  69.899  21.600  1.00  0.00     0.154 C 
HETATM   23  C   UNL     1      17.785  69.671  21.530  1.00  0.00     0.205 C 
BRANCH  20  24
HETATM   24  C   UNL     1      16.146  69.466  25.458  1.00  0.00     0.196 C 
BRANCH  24  25
HETATM   25  O   UNL     1      16.661  70.783  25.634  1.00  0.00    -0.398 OA
HETATM   26  H   UNL     1      16.643  71.254  24.786  1.00  0.00     0.209 HD
ENDBRANCH  24  25
ENDBRANCH  20  24
BRANCH  22  27
HETATM   27  O   UNL     1      15.545  68.700  21.216  1.00  0.00    -0.393 OA
HETATM   28  H   UNL     1      14.629  68.953  20.984  1.00  0.00     0.210 HD
ENDBRANCH  22  27
BRANCH  23  29
HETATM   29  O   UNL     1      18.146  68.681  20.466  1.00  0.00    -0.377 OA
BRANCH  29  30
HETATM   30  C   UNL     1      19.332  68.967  19.615  1.00  0.00     0.185 C 
BRANCH  30  31
HETATM   31  C   UNL     1      19.795  67.753  18.656  1.00  0.00     0.039 C 
HETATM   32  C   UNL     1      21.167  68.087  18.053  1.00  0.00     0.025 C 
BRANCH  31  33
HETATM   33  C   UNL     1      18.708  67.425  17.495  1.00  0.00     0.036 C 
BRANCH  33  34
HETATM   34  C   UNL     1      19.019  66.609  16.119  1.00  0.00     0.019 C 
HETATM   35  C   UNL     1      20.050  67.518  15.396  1.00  0.00     0.023 C 
BRANCH  34  36
HETATM   36  C   UNL     1      17.653  66.499  15.251  1.00  0.00     0.033 C 
BRANCH  36  37
HETATM   37  C   UNL     1      16.100  66.478  15.780  1.00  0.00     0.019 C 
HETATM   38  C   UNL     1      16.043  65.852  17.183  1.00  0.00     0.023 C 
BRANCH  37  39
HETATM   39  C   UNL     1      15.311  65.540  14.746  1.00  0.00     0.033 C 
BRANCH  39  40
HETATM   40  C   UNL     1      14.596  65.892  13.328  1.00  0.00     0.019 C 
HETATM   41  C   UNL     1      13.112  66.163  13.696  1.00  0.00     0.023 C 
BRANCH  40  42
HETATM   42  C   UNL     1      15.157  67.102  12.507  1.00  0.00     0.033 C 
BRANCH  42  43
HETATM   43  C   UNL     1      14.457  67.817  11.288  1.00  0.00     0.014 C 
HETATM   44  C   UNL     1      13.870  69.146  11.840  1.00  0.00     0.023 C 
HETATM   45  C   UNL     1      13.238  67.065  10.720  1.00  0.00     0.023 C 
BRANCH  43  46
HETATM   46  C   UNL     1      15.440  68.096  10.125  1.00  0.00     0.136 C 
HETATM   47  O   UNL     1      15.911  67.156   9.476  1.00  0.00    -0.297 OA
BRANCH  46  48
HETATM   48  C   UNL     1      15.912  69.518   9.834  1.00  0.00     0.109 C 
BRANCH  48  49
HETATM   49  C   UNL     1      16.286  69.674   8.351  1.00  0.00     0.279 C 
BRANCH  49  50
HETATM   50  N   UNL     1      16.626  71.067   7.991  1.00  0.00     0.080 N 
HETATM   51  C   UNL     1      17.589  71.130   6.891  1.00  0.00     0.309 C 
HETATM   52  C   UNL     1      15.413  71.802   7.613  1.00  0.00     0.309 C 
ENDBRANCH  49  50
ENDBRANCH  48  49
ENDBRANCH  46  48
ENDBRANCH  43  46
ENDBRANCH  42  43
ENDBRANCH  40  42
BRANCH  40  53
HETATM   53  C   UNL     1      14.590  64.577  12.482  1.00  0.00     0.137 C 
HETATM   54  O   UNL     1      13.656  63.783  12.531  1.00  0.00    -0.297 OA
BRANCH  53  55
HETATM   55  C   UNL     1      15.857  64.191  11.745  1.00  0.00     0.109 C 
BRANCH  55  56
HETATM   56  C   UNL     1      15.763  62.818  11.078  1.00  0.00     0.279 C 
BRANCH  56  57
HETATM   57  N   UNL     1      16.944  62.015  11.460  1.00  0.00     0.080 N 
HETATM   58  C   UNL     1      17.415  62.379  12.798  1.00  0.00     0.309 C 
HETATM   59  C   UNL     1      16.658  60.585  11.407  1.00  0.00     0.309 C 
ENDBRANCH  56  57
ENDBRANCH  55  56
ENDBRANCH  53  55
ENDBRANCH  40  53
ENDBRANCH  39  40
ENDBRANCH  37  39
BRANCH  37  60
HETATM   60  C   UNL     1      15.355  67.837  15.874  1.00  0.00     0.137 C 
HETATM   61  O   UNL     1      15.679  68.766  15.126  1.00  0.00    -0.297 OA
BRANCH  60  62
HETATM   62  C   UNL     1      14.214  68.058  16.837  1.00  0.00     0.109 C 
BRANCH  62  63
HETATM   63  C   UNL     1      13.254  69.182  16.419  1.00  0.00     0.279 C 
BRANCH  63  64
HETATM   64  N   UNL     1      12.009  69.162  17.216  1.00  0.00     0.080 N 
HETATM   65  C   UNL     1      11.160  68.024  16.855  1.00  0.00     0.309 C 
HETATM   66  C   UNL     1      12.328  69.095  18.646  1.00  0.00     0.309 C 
ENDBRANCH  63  64
ENDBRANCH  62  63
ENDBRANCH  60  62
ENDBRANCH  37  60
ENDBRANCH  36  37
ENDBRANCH  34  36
BRANCH  34  67
HETATM   67  C   UNL     1      19.603  65.167  16.213  1.00  0.00     0.137 C 
HETATM   68  O   UNL     1      20.784  65.032  16.554  1.00  0.00    -0.297 OA
BRANCH  67  69
HETATM   69  C   UNL     1      18.778  63.919  15.867  1.00  0.00     0.109 C 
BRANCH  69  70
HETATM   70  C   UNL     1      18.534  63.005  17.093  1.00  0.00     0.279 C 
BRANCH  70  71
HETATM   71  N   UNL     1      17.249  62.288  17.225  1.00  0.00     0.080 N 
HETATM   72  C   UNL     1      17.366  60.856  17.002  1.00  0.00     0.309 C 
HETATM   73  C   UNL     1      16.713  62.501  18.578  1.00  0.00     0.309 C 
ENDBRANCH  70  71
ENDBRANCH  69  70
ENDBRANCH  67  69
ENDBRANCH  34  67
ENDBRANCH  33  34
ENDBRANCH  31  33
BRANCH  31  74
HETATM   74  C   UNL     1      19.789  66.530  19.608  1.00  0.00     0.139 C 
HETATM   75  O   UNL     1      20.776  66.276  20.311  1.00  0.00    -0.297 OA
BRANCH  74  76
HETATM   76  C   UNL     1      18.645  65.540  19.597  1.00  0.00     0.109 C 
BRANCH  76  77
HETATM   77  C   UNL     1      18.622  64.793  20.918  1.00  0.00     0.279 C 
BRANCH  77  78
HETATM   78  N   UNL     1      17.967  65.512  22.021  1.00  0.00     0.080 N 
HETATM   79  C   UNL     1      18.492  65.088  23.319  1.00  0.00     0.309 C 
HETATM   80  C   UNL     1      16.519  65.279  21.976  1.00  0.00     0.309 C 
ENDBRANCH  77  78
ENDBRANCH  76  77
ENDBRANCH  74  76
ENDBRANCH  31  74
ENDBRANCH  30  31
ENDBRANCH  29  30
ENDBRANCH  23  29
ENDBRANCH  17  18
ENDBRANCH  11  17
BRANCH  12  81
HETATM   81  O   UNL     1      22.042  67.770  22.535  1.00  0.00    -0.390 OA
HETATM   82  H   UNL     1      21.293  67.455  21.989  1.00  0.00     0.210 HD
ENDBRANCH  12  81
BRANCH  13  83
HETATM   83  O   UNL     1      24.153  69.730  22.626  1.00  0.00    -0.388 OA
HETATM   84  H   UNL     1      24.882  70.221  23.035  1.00  0.00     0.210 HD
ENDBRANCH  13  83
ENDBRANCH   7   8
ENDBRANCH   1   7
BRANCH   2  85
HETATM   85  C   UNL     1      25.398  70.367  28.144  1.00  0.00     0.198 C 
BRANCH  85  86
HETATM   86  O   UNL     1      25.199  71.586  27.441  1.00  0.00    -0.398 OA
HETATM   87  H   UNL     1      24.277  71.868  27.575  1.00  0.00     0.209 HD
ENDBRANCH  85  86
ENDBRANCH   2  85
BRANCH   3  88
HETATM   88  O   UNL     1      26.901  68.092  24.533  1.00  0.00    -0.390 OA
HETATM   89  H   UNL     1      26.949  68.062  23.555  1.00  0.00     0.210 HD
ENDBRANCH   3  88
BRANCH   4  90
HETATM   90  O   UNL     1      29.147  69.892  24.859  1.00  0.00    -0.388 OA
HETATM   91  H   UNL     1      28.937  69.496  23.999  1.00  0.00     0.210 HD
ENDBRANCH   4  90
BRANCH   5  92
HETATM   92  O   UNL     1      29.170  68.469  27.150  1.00  0.00    -0.348 OA
BRANCH  92  93
HETATM   93  C   UNL     1      30.381  69.026  27.741  1.00  0.00     0.187 C 
HETATM   94  C   UNL     1      30.103  70.425  28.319  1.00  0.00     0.180 C 
HETATM   95  O   UNL     1      30.434  70.536  29.702  1.00  0.00    -0.348 OA
HETATM   96  C   UNL     1      31.696  70.021  30.121  1.00  0.00     0.292 C 
HETATM   97  C   UNL     1      31.974  68.491  29.776  1.00  0.00     0.208 C 
HETATM   98  C   UNL     1      30.787  68.036  28.877  1.00  0.00     0.183 C 
BRANCH  94  99
HETATM   99  C   UNL     1      30.797  71.559  27.549  1.00  0.00     0.198 C 
BRANCH  99 100
HETATM  100  O   UNL     1      31.429  71.049  26.376  1.00  0.00    -0.398 OA
HETATM  101  H   UNL     1      30.846  71.245  25.616  1.00  0.00     0.209 HD
ENDBRANCH  99 100
ENDBRANCH  94  99
BRANCH  96 102
HETATM  102  O   UNL     1      31.675  70.209  31.535  1.00  0.00    -0.348 OA
BRANCH 102 103
HETATM  103  C   UNL     1      30.630  71.032  32.030  1.00  0.00     0.187 C 
HETATM  104  C   UNL     1      29.929  70.340  33.217  1.00  0.00     0.176 C 
HETATM  105  O   UNL     1      29.448  71.286  34.202  1.00  0.00    -0.378 OA
HETATM  106  C   UNL     1      28.973  72.510  33.633  1.00  0.00     0.202 C 
HETATM  107  C   UNL     1      30.112  73.306  32.958  1.00  0.00     0.173 C 
HETATM  108  C   UNL     1      31.246  72.360  32.507  1.00  0.00     0.180 C 
BRANCH 104 109
HETATM  109  C   UNL     1      28.767  69.437  32.787  1.00  0.00     0.198 C 
BRANCH 109 110
HETATM  110  O   UNL     1      28.487  69.631  31.401  1.00  0.00    -0.398 OA
HETATM  111  H   UNL     1      27.543  69.409  31.279  1.00  0.00     0.209 HD
ENDBRANCH 109 110
ENDBRANCH 104 109
BRANCH 107 112
HETATM  112  O   UNL     1      30.631  74.371  33.837  1.00  0.00    -0.391 OA
HETATM  113  H   UNL     1      30.377  74.186  34.755  1.00  0.00     0.210 HD
ENDBRANCH 107 112
BRANCH 108 114
HETATM  114  O   UNL     1      32.186  72.165  33.582  1.00  0.00    -0.390 OA
HETATM  115  H   UNL     1      31.713  72.322  34.420  1.00  0.00     0.210 HD
ENDBRANCH 108 114
ENDBRANCH 102 103
ENDBRANCH  96 102
BRANCH  97 116
HETATM  116  O   UNL     1      32.164  67.701  31.042  1.00  0.00    -0.369 OA
BRANCH 116 117
HETATM  117  C   UNL     1      33.172  66.663  31.297  1.00  0.00     0.168 C 
BRANCH 117 118
HETATM  118  C   UNL     1      34.581  67.012  31.984  1.00  0.00     0.046 C 
HETATM  119  C   UNL     1      34.346  68.316  32.763  1.00  0.00     0.026 C 
BRANCH 118 120
HETATM  120  C   UNL     1      35.958  67.117  31.095  1.00  0.00     0.036 C 
BRANCH 120 121
HETATM  121  C   UNL     1      35.969  67.356  29.448  1.00  0.00     0.019 C 
HETATM  122  C   UNL     1      34.808  66.423  29.006  1.00  0.00     0.023 C 
BRANCH 121 123
HETATM  123  C   UNL     1      35.710  68.797  28.910  1.00  0.00     0.137 C 
HETATM  124  O   UNL     1      35.876  69.008  27.703  1.00  0.00    -0.297 OA
BRANCH 123 125
HETATM  125  C   UNL     1      35.286  69.956  29.833  1.00  0.00     0.109 C 
BRANCH 125 126
HETATM  126  C   UNL     1      35.983  71.292  29.489  1.00  0.00     0.279 C 
BRANCH 126 127
HETATM  127  N   UNL     1      35.169  72.473  29.136  1.00  0.00     0.080 N 
HETATM  128  C   UNL     1      36.049  73.641  29.006  1.00  0.00     0.309 C 
HETATM  129  C   UNL     1      34.143  72.779  30.118  1.00  0.00     0.309 C 
ENDBRANCH 126 127
ENDBRANCH 125 126
ENDBRANCH 123 125
ENDBRANCH 121 123
BRANCH 121 130
HETATM  130  C   UNL     1      37.366  66.891  28.720  1.00  0.00     0.033 C 
BRANCH 130 131
HETATM  131  C   UNL     1      38.918  67.408  29.070  1.00  0.00     0.019 C 
HETATM  132  C   UNL     1      39.913  66.323  28.625  1.00  0.00     0.023 C 
BRANCH 131 133
HETATM  133  C   UNL     1      39.412  68.744  28.444  1.00  0.00     0.137 C 
HETATM  134  O   UNL     1      39.911  68.741  27.312  1.00  0.00    -0.297 OA
BRANCH 133 135
HETATM  135  C   UNL     1      39.292  70.063  29.167  1.00  0.00     0.109 C 
BRANCH 135 136
HETATM  136  C   UNL     1      39.366  71.302  28.259  1.00  0.00     0.279 C 
BRANCH 136 137
HETATM  137  N   UNL     1      40.663  72.003  28.385  1.00  0.00     0.080 N 
HETATM  138  C   UNL     1      41.414  71.909  27.129  1.00  0.00     0.309 C 
HETATM  139  C   UNL     1      41.471  71.449  29.473  1.00  0.00     0.309 C 
ENDBRANCH 136 137
ENDBRANCH 135 136
ENDBRANCH 133 135
ENDBRANCH 131 133
BRANCH 131 140
HETATM  140  C   UNL     1      39.012  67.573  30.667  1.00  0.00     0.033 C 
BRANCH 140 141
HETATM  141  C   UNL     1      40.324  67.675  31.654  1.00  0.00     0.019 C 
HETATM  142  C   UNL     1      41.541  67.632  30.689  1.00  0.00     0.023 C 
BRANCH 141 143
HETATM  143  C   UNL     1      40.464  68.924  32.599  1.00  0.00     0.033 C 
BRANCH 143 144
HETATM  144  C   UNL     1      39.332  69.563  33.500  1.00  0.00     0.014 C 
HETATM  145  C   UNL     1      40.012  69.968  34.838  1.00  0.00     0.023 C 
HETATM  146  C   UNL     1      38.217  68.583  33.923  1.00  0.00     0.023 C 
BRANCH 144 147
HETATM  147  C   UNL     1      38.661  70.796  32.841  1.00  0.00     0.136 C 
HETATM  148  O   UNL     1      39.358  71.673  32.322  1.00  0.00    -0.297 OA
BRANCH 147 149
HETATM  149  C   UNL     1      37.147  70.986  32.911  1.00  0.00     0.109 C 
BRANCH 149 150
HETATM  150  C   UNL     1      36.780  72.480  32.896  1.00  0.00     0.279 C 
BRANCH 150 151
HETATM  151  N   UNL     1      36.246  72.953  34.193  1.00  0.00     0.080 N 
HETATM  152  C   UNL     1      36.064  71.857  35.146  1.00  0.00     0.309 C 
HETATM  153  C   UNL     1      37.146  73.954  34.776  1.00  0.00     0.309 C 
ENDBRANCH 150 151
ENDBRANCH 149 150
ENDBRANCH 147 149
ENDBRANCH 144 147
ENDBRANCH 143 144
ENDBRANCH 141 143
BRANCH 141 154
HETATM  154  C   UNL     1      40.385  66.347  32.474  1.00  0.00     0.137 C 
HETATM  155  O   UNL     1      41.148  66.215  33.436  1.00  0.00    -0.297 OA
BRANCH 154 156
HETATM  156  C   UNL     1      39.634  65.140  31.954  1.00  0.00     0.109 C 
BRANCH 156 157
HETATM  157  C   UNL     1      40.462  63.853  31.978  1.00  0.00     0.279 C 
BRANCH 157 158
HETATM  158  N   UNL     1      41.369  63.841  30.810  1.00  0.00     0.080 N 
HETATM  159  C   UNL     1      41.033  62.770  29.878  1.00  0.00     0.309 C 
HETATM  160  C   UNL     1      42.765  63.712  31.232  1.00  0.00     0.309 C 
ENDBRANCH 157 158
ENDBRANCH 156 157
ENDBRANCH 154 156
ENDBRANCH 141 154
ENDBRANCH 140 141
ENDBRANCH 131 140
ENDBRANCH 130 131
ENDBRANCH 121 130
ENDBRANCH 120 121
ENDBRANCH 118 120
BRANCH 118 161
HETATM  161  C   UNL     1      34.767  65.722  32.834  1.00  0.00     0.139 C 
HETATM  162  O   UNL     1      33.824  65.216  33.456  1.00  0.00    -0.297 OA
BRANCH 161 163
HETATM  163  C   UNL     1      36.142  65.127  33.018  1.00  0.00     0.109 C 
BRANCH 163 164
HETATM  164  C   UNL     1      36.040  63.892  33.885  1.00  0.00     0.279 C 
BRANCH 164 165
HETATM  165  N   UNL     1      36.780  63.949  35.154  1.00  0.00     0.080 N 
HETATM  166  C   UNL     1      35.866  64.063  36.291  1.00  0.00     0.309 C 
HETATM  167  C   UNL     1      37.673  65.112  35.146  1.00  0.00     0.309 C 
ENDBRANCH 164 165
ENDBRANCH 163 164
ENDBRANCH 161 163
ENDBRANCH 118 161
ENDBRANCH 117 118
ENDBRANCH 116 117
ENDBRANCH  97 116
BRANCH  98 168
HETATM  168  O   UNL     1      29.631  67.797  29.710  1.00  0.00    -0.390 OA
HETATM  169  H   UNL     1      29.929  67.204  30.428  1.00  0.00     0.210 HD
ENDBRANCH  98 168
ENDBRANCH  92  93
ENDBRANCH   5  92
TORSDOF 88
ENDMDL
