MODEL 1
REMARK VINA RESULT:      -6.2      0.000      0.000
REMARK WARNING: 32 MAX_TORS EXCEEDED!!!
REMARK  60 active torsions:
REMARK  status: ('A' for Active; 'I' for Inactive)
REMARK    1  A    between atoms: C_1  and  O_30 
REMARK    2  A    between atoms: C_3  and  O_9 
REMARK    3  A    between atoms: C_4  and  O_11 
REMARK    4  A    between atoms: O_11  and  C_106 
REMARK    5  A    between atoms: O_14  and  C_18 
REMARK    6  A    between atoms: O_19  and  C_22 
REMARK    7  A    between atoms: O_19  and  C_42 
REMARK    8  A    between atoms: O_21  and  C_24 
REMARK    9  A    between atoms: O_26  and  C_29 
REMARK   10  A    between atoms: C_28  and  C_34 
REMARK   11  A    between atoms: O_30  and  C_33 
REMARK   12  A    between atoms: C_31  and  O_53 
REMARK   13  A    between atoms: O_32  and  C_35 
REMARK   14  A    between atoms: C_34  and  O_59 
REMARK   15  A    between atoms: O_37  and  C_41 
REMARK   16  A    between atoms: C_39  and  C_45 
REMARK   17  A    between atoms: O_40  and  C_45 
REMARK   18  A    between atoms: O_40  and  C_157 
REMARK   19  A    between atoms: O_43  and  C_46 
REMARK   20  A    between atoms: O_48  and  C_52 
REMARK   21  A    between atoms: C_50  and  C_57 
REMARK   22  A    between atoms: O_51  and  C_57 
REMARK   23  A    between atoms: O_51  and  C_135 
REMARK   24  A    between atoms: O_53  and  C_56 
REMARK   25  A    between atoms: O_55  and  C_58 
REMARK   26  A    between atoms: O_55  and  C_60 
REMARK   27  A    between atoms: O_59  and  C_141 
REMARK   28  A    between atoms: C_60  and  C_61 
REMARK   29  A    between atoms: C_61  and  C_62 
REMARK   30  A    between atoms: C_61  and  N_75 
REMARK   31  A    between atoms: C_62  and  C_63 
REMARK   32  A    between atoms: C_63  and  C_64 
REMARK   33  A    between atoms: C_63  and  N_89 
REMARK   34  A    between atoms: C_64  and  C_65 
REMARK   35  A    between atoms: C_65  and  C_66 
REMARK   36  A    between atoms: C_65  and  N_79 
REMARK   37  A    between atoms: C_66  and  C_67 
REMARK   38  A    between atoms: C_67  and  C_68 
REMARK   39  A    between atoms: C_67  and  N_94 
REMARK   40  A    between atoms: C_68  and  C_69 
REMARK   41  A    between atoms: C_69  and  N_84 
REMARK   42  A    between atoms: N_101  and  C_107 
REMARK   43  A    between atoms: C_106  and  C_107 
REMARK   44  A    between atoms: C_107  and  C_114 
REMARK   45  A    between atoms: N_110  and  C_116 
REMARK   46  A    between atoms: C_112  and  C_116 
REMARK   47  A    between atoms: C_112  and  C_118 
REMARK   48  A    between atoms: N_113  and  C_123 
REMARK   49  A    between atoms: C_114  and  C_118 
REMARK   50  A    between atoms: C_116  and  C_120 
REMARK   51  A    between atoms: N_117  and  C_118 
REMARK   52  A    between atoms: C_120  and  C_125 
REMARK   53  A    between atoms: C_123  and  C_124 
REMARK   54  A    between atoms: C_124  and  C_125 
REMARK   55  A    between atoms: C_125  and  N_128 
REMARK   56  A    between atoms: C_135  and  C_136 
REMARK   57  A    between atoms: C_136  and  O_138 
REMARK   58  A    between atoms: C_141  and  C_142 
REMARK   59  A    between atoms: C_142  and  O_143 
REMARK   60  A    between atoms: C_157  and  O_158 
ROOT
HETATM    1  C   UNL     1      23.950  70.353  25.396  1.00  0.00     0.187 C 
HETATM    2  C   UNL     1      24.176  70.568  26.947  1.00  0.00     0.180 C 
HETATM    3  C   UNL     1      25.246  69.962  24.612  1.00  0.00     0.183 C 
HETATM    4  C   UNL     1      26.208  69.057  25.446  1.00  0.00     0.208 C 
HETATM    5  C   UNL     1      26.425  69.911  26.729  1.00  0.00     0.292 C 
HETATM    6  C   UNL     1      24.265  72.066  27.390  1.00  0.00     0.203 C 
HETATM    7  O   UNL     1      24.349  72.349  28.788  1.00  0.00    -0.370 OA
HETATM    8  O   UNL     1      25.247  69.797  27.504  1.00  0.00    -0.348 OA
HETATM    9  O   UNL     1      27.592  69.551  27.486  1.00  0.00    -0.348 OA
HETATM   10  O   UNL     1      30.092  71.127  29.545  1.00  0.00    -0.348 OA
HETATM   11  C   UNL     1      28.743  71.108  29.088  1.00  0.00     0.180 C 
HETATM   12  O   UNL     1      28.342  72.915  30.665  1.00  0.00    -0.304 OA
HETATM   13  C   UNL     1      29.931  70.249  26.992  1.00  0.00     0.183 C 
HETATM   14  C   UNL     1      28.565  70.623  27.610  1.00  0.00     0.187 C 
HETATM   15  C   UNL     1      31.062  71.767  28.723  1.00  0.00     0.292 C 
HETATM   16  C   UNL     1      28.087  72.473  29.372  1.00  0.00     0.215 C 
HETATM   17  C   UNL     1      30.854  71.475  27.209  1.00  0.00     0.204 C 
HETATM   18 NA   UNL     1      24.079  68.692  31.441  1.00  0.00     0.050 Na
HETATM   19  C   UNL     1      24.218  71.208  29.604  1.00  0.00     0.261 C 
HETATM   20  C   UNL     1      23.363  71.464  30.805  1.00  0.00     0.310 C 
HETATM   21  O   UNL     1      23.171  70.476  31.699  1.00  0.00    -0.185 OA
HETATM   22  O   UNL     1      22.847  72.555  30.988  1.00  0.00    -0.261 OA
HETATM   23 NA   UNL     1      26.368  70.139  32.929  1.00  0.00     0.051 Na
HETATM   24  C   UNL     1      28.914  71.465  32.427  1.00  0.00     0.146 C 
HETATM   25  C   UNL     1      27.888  72.391  31.838  1.00  0.00     0.314 C 
HETATM   26  O   UNL     1      26.764  71.668  31.680  1.00  0.00    -0.172 OA
HETATM   27  O   UNL     1      27.730  73.281  32.658  1.00  0.00    -0.242 OA
ENDROOT
BRANCH   1  28
HETATM   28  O   UNL     1      22.943  69.368  25.194  1.00  0.00    -0.348 OA
BRANCH  28  29
HETATM   29  C   UNL     1      21.616  69.910  25.088  1.00  0.00     0.292 C 
HETATM   30  O   UNL     1      20.737  69.137  25.898  1.00  0.00    -0.348 OA
HETATM   31  C   UNL     1      19.356  69.539  25.850  1.00  0.00     0.180 C 
HETATM   32  C   UNL     1      18.853  69.995  24.441  1.00  0.00     0.187 C 
HETATM   33  C   UNL     1      19.765  69.415  23.361  1.00  0.00     0.183 C 
HETATM   34  C   UNL     1      21.194  69.943  23.588  1.00  0.00     0.204 C 
BRANCH  31  35
HETATM   35  C   UNL     1      19.007  70.594  26.937  1.00  0.00     0.203 C 
BRANCH  35  36
HETATM   36  O   UNL     1      19.815  70.525  28.092  1.00  0.00    -0.370 OA
BRANCH  36  37
HETATM   37  C   UNL     1      20.275  71.800  28.441  1.00  0.00     0.262 C 
BRANCH  37  38
HETATM   38  C   UNL     1      19.724  72.154  29.783  1.00  0.00     0.321 C 
HETATM   39  O   UNL     1      19.644  73.323  30.127  1.00  0.00    -0.260 OA
BRANCH  38  40
HETATM   40  O   UNL     1      19.287  71.185  30.607  1.00  0.00    -0.147 OA
HETATM   41 NA   UNL     1      18.872  69.357  29.875  1.00  0.00     0.000 Na
ENDBRANCH  38  40
ENDBRANCH  37  38
ENDBRANCH  36  37
ENDBRANCH  35  36
ENDBRANCH  31  35
BRANCH  32  42
HETATM   42  O   UNL     1      17.546  69.492  24.191  1.00  0.00    -0.348 OA
BRANCH  42  43
HETATM   43  C   UNL     1      16.571  70.461  23.866  1.00  0.00     0.292 C 
HETATM   44  O   UNL     1      15.843  70.768  25.058  1.00  0.00    -0.351 OA
HETATM   45  C   UNL     1      14.433  70.677  24.951  1.00  0.00     0.151 C 
HETATM   46  C   UNL     1      13.918  71.460  23.721  1.00  0.00     0.068 C 
HETATM   47  C   UNL     1      14.616  71.018  22.406  1.00  0.00     0.154 C 
HETATM   48  C   UNL     1      15.716  69.960  22.644  1.00  0.00     0.205 C 
BRANCH  45  49
HETATM   49  C   UNL     1      13.802  71.261  26.233  1.00  0.00     0.200 C 
BRANCH  49  50
HETATM   50  O   UNL     1      14.646  72.190  26.889  1.00  0.00    -0.379 OA
BRANCH  50  51
HETATM   51  C   UNL     1      14.092  73.491  26.934  1.00  0.00     0.281 C 
BRANCH  51  52
HETATM   52  C   UNL     1      14.644  74.313  25.803  1.00  0.00     0.313 C 
HETATM   53  O   UNL     1      13.957  75.158  25.250  1.00  0.00    -0.260 OA
BRANCH  52  54
HETATM   54  O   UNL     1      15.910  74.118  25.388  1.00  0.00    -0.148 OA
HETATM   55 NA   UNL     1      16.981  72.547  26.046  1.00  0.00     0.000 Na
ENDBRANCH  52  54
ENDBRANCH  51  52
ENDBRANCH  50  51
ENDBRANCH  49  50
ENDBRANCH  45  49
BRANCH  47  56
HETATM   56  O   UNL     1      13.691  70.589  21.438  1.00  0.00    -0.393 OA
HETATM   57  H   UNL     1      12.797  70.942  21.696  1.00  0.00     0.210 HD
ENDBRANCH  47  56
BRANCH  48  58
HETATM   58  O   UNL     1      15.074  68.708  22.845  1.00  0.00    -0.376 OA
BRANCH  58  59
HETATM   59  C   UNL     1      15.270  67.759  21.807  1.00  0.00     0.194 C 
BRANCH  59  60
HETATM   60  C   UNL     1      16.620  66.979  21.894  1.00  0.00     0.116 C 
BRANCH  60  61
HETATM   61  C   UNL     1      17.580  67.394  20.720  1.00  0.00     0.053 C 
BRANCH  61  62
HETATM   62  C   UNL     1      18.723  66.423  20.237  1.00  0.00     0.094 C 
BRANCH  62  63
HETATM   63  C   UNL     1      18.252  65.579  18.984  1.00  0.00     0.051 C 
BRANCH  63  64
HETATM   64  C   UNL     1      19.311  65.018  17.975  1.00  0.00     0.094 C 
BRANCH  64  65
HETATM   65  C   UNL     1      18.896  63.630  17.367  1.00  0.00     0.051 C 
BRANCH  65  66
HETATM   66  C   UNL     1      17.354  63.486  17.245  1.00  0.00     0.094 C 
BRANCH  66  67
HETATM   67  C   UNL     1      16.765  63.579  15.797  1.00  0.00     0.051 C 
BRANCH  67  68
HETATM   68  C   UNL     1      15.746  64.704  15.429  1.00  0.00     0.089 C 
HETATM   69  C   UNL     1      15.413  65.521  16.689  1.00  0.00     0.033 C 
BRANCH  68  70
HETATM   70  N   UNL     1      16.167  65.620  14.381  1.00  0.00    -0.334 N 
HETATM   71  C   UNL     1      15.763  66.964  14.269  1.00  0.00     0.210 A 
HETATM   72  N   UNL     1      16.286  67.527  13.250  1.00  0.00    -0.254 NA
HETATM   73  C   UNL     1      17.094  66.550  12.626  1.00  0.00     0.150 A 
HETATM   74  C   UNL     1      17.037  65.402  13.297  1.00  0.00     0.082 A 
ENDBRANCH  68  70
ENDBRANCH  67  68
ENDBRANCH  66  67
BRANCH  66  75
HETATM   75  N   UNL     1      16.839  62.326  17.989  1.00  0.00    -0.345 N 
HETATM   76  C   UNL     1      17.523  61.257  18.453  1.00  0.00     0.209 A 
HETATM   77  N   UNL     1      16.724  60.389  19.107  1.00  0.00    -0.255 NA
HETATM   78  C   UNL     1      15.495  60.941  19.053  1.00  0.00     0.135 A 
HETATM   79  C   UNL     1      15.564  62.134  18.370  1.00  0.00     0.111 A 
ENDBRANCH  66  75
ENDBRANCH  65  66
ENDBRANCH  64  65
BRANCH  64  80
HETATM   80  N   UNL     1      19.525  65.952  16.850  1.00  0.00    -0.345 N 
HETATM   81  C   UNL     1      20.412  65.868  15.836  1.00  0.00     0.209 A 
HETATM   82  N   UNL     1      20.290  66.893  14.966  1.00  0.00    -0.255 NA
HETATM   83  C   UNL     1      19.281  67.643  15.448  1.00  0.00     0.135 A 
HETATM   84  C   UNL     1      18.802  67.065  16.599  1.00  0.00     0.111 A 
ENDBRANCH  64  80
ENDBRANCH  63  64
ENDBRANCH  62  63
BRANCH  62  85
HETATM   85  N   UNL     1      20.056  67.066  20.177  1.00  0.00    -0.345 N 
HETATM   86  C   UNL     1      20.300  68.338  19.797  1.00  0.00     0.209 A 
HETATM   87  N   UNL     1      21.614  68.631  19.756  1.00  0.00    -0.255 NA
HETATM   88  C   UNL     1      22.230  67.486  20.095  1.00  0.00     0.135 A 
HETATM   89  C   UNL     1      21.281  66.518  20.329  1.00  0.00     0.111 A 
ENDBRANCH  62  85
ENDBRANCH  61  62
ENDBRANCH  60  61
BRANCH  60  90
HETATM   90  N   UNL     1      16.441  65.517  22.066  1.00  0.00    -0.343 N 
HETATM   91  C   UNL     1      15.664  64.657  21.367  1.00  0.00     0.111 A 
HETATM   92  C   UNL     1      15.820  63.397  21.896  1.00  0.00     0.135 A 
HETATM   93  N   UNL     1      16.671  63.456  22.935  1.00  0.00    -0.255 NA
HETATM   94  C   UNL     1      17.024  64.754  23.019  1.00  0.00     0.209 A 
ENDBRANCH  60  90
ENDBRANCH  59  60
ENDBRANCH  58  59
ENDBRANCH  48  58
ENDBRANCH  42  43
ENDBRANCH  32  42
BRANCH  33  95
HETATM   95  O   UNL     1      19.694  68.006  23.345  1.00  0.00    -0.390 OA
HETATM   96  H   UNL     1      20.366  67.632  23.968  1.00  0.00     0.210 HD
ENDBRANCH  33  95
BRANCH  34  97
HETATM   97  O   UNL     1      22.110  69.318  22.724  1.00  0.00    -0.388 OA
HETATM   98  H   UNL     1      21.613  69.007  21.926  1.00  0.00     0.210 HD
ENDBRANCH  34  97
ENDBRANCH  28  29
ENDBRANCH   1  28
BRANCH   3  99
HETATM   99  O   UNL     1      24.922  69.378  23.377  1.00  0.00    -0.390 OA
HETATM  100  H   UNL     1      25.393  69.903  22.677  1.00  0.00     0.210 HD
ENDBRANCH   3  99
BRANCH   4 101
HETATM  101  O   UNL     1      25.609  67.757  25.625  1.00  0.00    -0.376 OA
BRANCH 101 102
HETATM  102  C   UNL     1      26.446  66.791  26.258  1.00  0.00     0.194 C 
BRANCH 102 103
HETATM  103  C   UNL     1      25.662  65.852  27.269  1.00  0.00     0.116 C 
BRANCH 103 104
HETATM  104  N   UNL     1      26.481  65.506  28.458  1.00  0.00    -0.343 N 
HETATM  105  C   UNL     1      26.080  65.280  29.729  1.00  0.00     0.111 A 
HETATM  106  C   UNL     1      27.188  65.005  30.497  1.00  0.00     0.135 A 
HETATM  107  N   UNL     1      28.286  65.079  29.726  1.00  0.00    -0.255 NA
HETATM  108  C   UNL     1      27.829  65.393  28.498  1.00  0.00     0.209 A 
ENDBRANCH 103 104
BRANCH 103 109
HETATM  109  C   UNL     1      24.242  66.460  27.590  1.00  0.00     0.053 C 
BRANCH 109 110
HETATM  110  C   UNL     1      22.919  65.621  27.851  1.00  0.00     0.094 C 
BRANCH 110 111
HETATM  111  C   UNL     1      23.120  64.045  27.876  1.00  0.00     0.051 C 
BRANCH 111 112
HETATM  112  C   UNL     1      21.849  63.100  27.857  1.00  0.00     0.094 C 
BRANCH 112 113
HETATM  113  N   UNL     1      21.877  62.073  28.914  1.00  0.00    -0.345 N 
HETATM  114  C   UNL     1      22.322  60.806  28.817  1.00  0.00     0.111 A 
HETATM  115  C   UNL     1      22.086  60.177  30.021  1.00  0.00     0.135 A 
HETATM  116  N   UNL     1      21.480  61.037  30.861  1.00  0.00    -0.255 NA
HETATM  117  C   UNL     1      21.359  62.179  30.157  1.00  0.00     0.209 A 
ENDBRANCH 112 113
BRANCH 112 118
HETATM  118  C   UNL     1      21.596  62.346  26.495  1.00  0.00     0.051 C 
BRANCH 118 119
HETATM  119  C   UNL     1      20.103  62.417  26.051  1.00  0.00     0.094 C 
BRANCH 119 120
HETATM  120  C   UNL     1      19.092  61.498  26.825  1.00  0.00     0.051 C 
BRANCH 120 121
HETATM  121  C   UNL     1      17.986  60.694  26.059  1.00  0.00     0.089 C 
HETATM  122  C   UNL     1      18.198  60.842  24.542  1.00  0.00     0.033 C 
BRANCH 121 123
HETATM  123  N   UNL     1      17.900  59.278  26.375  1.00  0.00    -0.334 N 
HETATM  124  C   UNL     1      17.328  58.228  25.632  1.00  0.00     0.082 A 
HETATM  125  C   UNL     1      17.495  57.123  26.358  1.00  0.00     0.150 A 
HETATM  126  N   UNL     1      18.161  57.422  27.568  1.00  0.00    -0.254 NA
HETATM  127  C   UNL     1      18.383  58.679  27.556  1.00  0.00     0.210 A 
ENDBRANCH 121 123
ENDBRANCH 120 121
ENDBRANCH 119 120
BRANCH 119 128
HETATM  128  N   UNL     1      19.636  63.817  26.009  1.00  0.00    -0.345 N 
HETATM  129  C   UNL     1      20.096  64.822  25.231  1.00  0.00     0.209 A 
HETATM  130  N   UNL     1      19.425  65.973  25.431  1.00  0.00    -0.255 NA
HETATM  131  C   UNL     1      18.504  65.674  26.368  1.00  0.00     0.135 A 
HETATM  132  C   UNL     1      18.627  64.349  26.724  1.00  0.00     0.111 A 
ENDBRANCH 119 128
ENDBRANCH 118 119
ENDBRANCH 112 118
ENDBRANCH 111 112
ENDBRANCH 110 111
BRANCH 110 133
HETATM  133  N   UNL     1      22.062  66.208  28.915  1.00  0.00    -0.345 N 
HETATM  134  C   UNL     1      22.220  66.201  30.253  1.00  0.00     0.111 A 
HETATM  135  C   UNL     1      21.217  66.956  30.819  1.00  0.00     0.135 A 
HETATM  136  N   UNL     1      20.457  67.477  29.845  1.00  0.00    -0.255 NA
HETATM  137  C   UNL     1      21.007  67.021  28.701  1.00  0.00     0.209 A 
ENDBRANCH 110 133
ENDBRANCH 109 110
ENDBRANCH 103 109
ENDBRANCH 102 103
ENDBRANCH 101 102
ENDBRANCH   4 101
BRANCH  13 138
HETATM  138  O   UNL     1      30.482  69.110  27.602  1.00  0.00    -0.390 OA
HETATM  139  H   UNL     1      31.354  68.947  27.158  1.00  0.00     0.210 HD
ENDBRANCH  13 138
BRANCH  17 140
HETATM  140  O   UNL     1      32.071  71.391  26.508  1.00  0.00    -0.388 OA
HETATM  141  H   UNL     1      32.731  70.947  27.098  1.00  0.00     0.210 HD
ENDBRANCH  17 140
BRANCH  15 142
HETATM  142  O   UNL     1      32.315  71.239  29.138  1.00  0.00    -0.348 OA
BRANCH 142 143
HETATM  143  C   UNL     1      32.646  71.482  30.504  1.00  0.00     0.187 C 
HETATM  144  C   UNL     1      33.849  70.572  30.988  1.00  0.00     0.177 C 
HETATM  145  O   UNL     1      34.627  71.158  32.045  1.00  0.00    -0.378 OA
HETATM  146  C   UNL     1      33.860  71.999  32.874  1.00  0.00     0.202 C 
HETATM  147  C   UNL     1      33.450  73.277  32.110  1.00  0.00     0.173 C 
HETATM  148  C   UNL     1      33.094  72.952  30.628  1.00  0.00     0.180 C 
BRANCH 144 149
HETATM  149  C   UNL     1      33.395  69.162  31.410  1.00  0.00     0.215 C 
BRANCH 149 150
HETATM  150  O   UNL     1      33.768  68.076  30.611  1.00  0.00    -0.303 OA
BRANCH 150 151
HETATM  151  C   UNL     1      33.602  67.644  29.320  1.00  0.00     0.323 C 
HETATM  152  C   UNL     1      34.274  68.466  28.251  1.00  0.00     0.147 C 
HETATM  153  O   UNL     1      34.063  66.518  29.220  1.00  0.00    -0.241 OA
BRANCH 151 154
HETATM  154  O   UNL     1      32.292  67.643  29.001  1.00  0.00    -0.132 OA
HETATM  155 NA   UNL     1      31.019  69.000  29.783  1.00  0.00     0.000 Na
ENDBRANCH 151 154
ENDBRANCH 150 151
ENDBRANCH 149 150
ENDBRANCH 144 149
BRANCH 147 156
HETATM  156  O   UNL     1      34.420  74.296  32.184  1.00  0.00    -0.391 OA
HETATM  157  H   UNL     1      34.073  75.013  32.775  1.00  0.00     0.210 HD
ENDBRANCH 147 156
BRANCH 148 158
HETATM  158  O   UNL     1      34.171  73.206  29.751  1.00  0.00    -0.390 OA
HETATM  159  H   UNL     1      34.569  72.348  29.460  1.00  0.00     0.210 HD
ENDBRANCH 148 158
ENDBRANCH 142 143
ENDBRANCH  15 142
TORSDOF 60
ENDMDL
MODEL 2
REMARK VINA RESULT:      -6.0      1.772      2.950
REMARK WARNING: 32 MAX_TORS EXCEEDED!!!
REMARK  60 active torsions:
REMARK  status: ('A' for Active; 'I' for Inactive)
REMARK    1  A    between atoms: C_1  and  O_30 
REMARK    2  A    between atoms: C_3  and  O_9 
REMARK    3  A    between atoms: C_4  and  O_11 
REMARK    4  A    between atoms: O_11  and  C_106 
REMARK    5  A    between atoms: O_14  and  C_18 
REMARK    6  A    between atoms: O_19  and  C_22 
REMARK    7  A    between atoms: O_19  and  C_42 
REMARK    8  A    between atoms: O_21  and  C_24 
REMARK    9  A    between atoms: O_26  and  C_29 
REMARK   10  A    between atoms: C_28  and  C_34 
REMARK   11  A    between atoms: O_30  and  C_33 
REMARK   12  A    between atoms: C_31  and  O_53 
REMARK   13  A    between atoms: O_32  and  C_35 
REMARK   14  A    between atoms: C_34  and  O_59 
REMARK   15  A    between atoms: O_37  and  C_41 
REMARK   16  A    between atoms: C_39  and  C_45 
REMARK   17  A    between atoms: O_40  and  C_45 
REMARK   18  A    between atoms: O_40  and  C_157 
REMARK   19  A    between atoms: O_43  and  C_46 
REMARK   20  A    between atoms: O_48  and  C_52 
REMARK   21  A    between atoms: C_50  and  C_57 
REMARK   22  A    between atoms: O_51  and  C_57 
REMARK   23  A    between atoms: O_51  and  C_135 
REMARK   24  A    between atoms: O_53  and  C_56 
REMARK   25  A    between atoms: O_55  and  C_58 
REMARK   26  A    between atoms: O_55  and  C_60 
REMARK   27  A    between atoms: O_59  and  C_141 
REMARK   28  A    between atoms: C_60  and  C_61 
REMARK   29  A    between atoms: C_61  and  C_62 
REMARK   30  A    between atoms: C_61  and  N_75 
REMARK   31  A    between atoms: C_62  and  C_63 
REMARK   32  A    between atoms: C_63  and  C_64 
REMARK   33  A    between atoms: C_63  and  N_89 
REMARK   34  A    between atoms: C_64  and  C_65 
REMARK   35  A    between atoms: C_65  and  C_66 
REMARK   36  A    between atoms: C_65  and  N_79 
REMARK   37  A    between atoms: C_66  and  C_67 
REMARK   38  A    between atoms: C_67  and  C_68 
REMARK   39  A    between atoms: C_67  and  N_94 
REMARK   40  A    between atoms: C_68  and  C_69 
REMARK   41  A    between atoms: C_69  and  N_84 
REMARK   42  A    between atoms: N_101  and  C_107 
REMARK   43  A    between atoms: C_106  and  C_107 
REMARK   44  A    between atoms: C_107  and  C_114 
REMARK   45  A    between atoms: N_110  and  C_116 
REMARK   46  A    between atoms: C_112  and  C_116 
REMARK   47  A    between atoms: C_112  and  C_118 
REMARK   48  A    between atoms: N_113  and  C_123 
REMARK   49  A    between atoms: C_114  and  C_118 
REMARK   50  A    between atoms: C_116  and  C_120 
REMARK   51  A    between atoms: N_117  and  C_118 
REMARK   52  A    between atoms: C_120  and  C_125 
REMARK   53  A    between atoms: C_123  and  C_124 
REMARK   54  A    between atoms: C_124  and  C_125 
REMARK   55  A    between atoms: C_125  and  N_128 
REMARK   56  A    between atoms: C_135  and  C_136 
REMARK   57  A    between atoms: C_136  and  O_138 
REMARK   58  A    between atoms: C_141  and  C_142 
REMARK   59  A    between atoms: C_142  and  O_143 
REMARK   60  A    between atoms: C_157  and  O_158 
ROOT
HETATM    1  C   UNL     1      25.702  69.817  25.798  1.00  0.00     0.187 C 
HETATM    2  C   UNL     1      25.854  70.234  27.317  1.00  0.00     0.180 C 
HETATM    3  C   UNL     1      27.017  69.264  25.156  1.00  0.00     0.183 C 
HETATM    4  C   UNL     1      27.882  68.439  26.162  1.00  0.00     0.208 C 
HETATM    5  C   UNL     1      28.074  69.452  27.329  1.00  0.00     0.292 C 
HETATM    6  C   UNL     1      25.998  71.773  27.558  1.00  0.00     0.203 C 
HETATM    7  O   UNL     1      26.020  72.242  28.908  1.00  0.00    -0.370 OA
HETATM    8  O   UNL     1      26.850  69.499  28.038  1.00  0.00    -0.348 OA
HETATM    9  O   UNL     1      29.177  69.147  28.198  1.00  0.00    -0.348 OA
HETATM   10  O   UNL     1      31.640  70.878  30.177  1.00  0.00    -0.348 OA
HETATM   11  C   UNL     1      30.319  70.857  29.644  1.00  0.00     0.180 C 
HETATM   12  O   UNL     1      29.929  72.881  30.934  1.00  0.00    -0.304 OA
HETATM   13  C   UNL     1      31.573  69.664  27.760  1.00  0.00     0.183 C 
HETATM   14  C   UNL     1      30.197  70.181  28.237  1.00  0.00     0.187 C 
HETATM   15  C   UNL     1      32.686  71.353  29.337  1.00  0.00     0.292 C 
HETATM   16  C   UNL     1      29.722  72.276  29.699  1.00  0.00     0.215 C 
HETATM   17  C   UNL     1      32.547  70.865  27.867  1.00  0.00     0.204 C 
HETATM   18 NA   UNL     1      25.410  69.002  32.009  1.00  0.00     0.050 Na
HETATM   19  C   UNL     1      25.784  71.231  29.861  1.00  0.00     0.261 C 
HETATM   20  C   UNL     1      24.879  71.689  30.961  1.00  0.00     0.310 C 
HETATM   21  O   UNL     1      24.585  70.844  31.967  1.00  0.00    -0.185 OA
HETATM   22  O   UNL     1      24.412  72.817  30.963  1.00  0.00    -0.261 OA
HETATM   23 NA   UNL     1      27.688  70.536  33.426  1.00  0.00     0.051 Na
HETATM   24  C   UNL     1      30.325  71.663  32.908  1.00  0.00     0.146 C 
HETATM   25  C   UNL     1      29.383  72.545  32.137  1.00  0.00     0.314 C 
HETATM   26  O   UNL     1      28.233  71.858  32.009  1.00  0.00    -0.172 OA
HETATM   27  O   UNL     1      29.228  73.546  32.818  1.00  0.00    -0.242 OA
ENDROOT
BRANCH   1  28
HETATM   28  O   UNL     1      24.658  68.860  25.669  1.00  0.00    -0.348 OA
BRANCH  28  29
HETATM   29  C   UNL     1      23.340  69.427  25.754  1.00  0.00     0.292 C 
HETATM   30  O   UNL     1      22.504  68.543  26.492  1.00  0.00    -0.348 OA
HETATM   31  C   UNL     1      21.133  68.964  26.615  1.00  0.00     0.180 C 
HETATM   32  C   UNL     1      20.540  69.650  25.340  1.00  0.00     0.187 C 
HETATM   33  C   UNL     1      21.356  69.243  24.115  1.00  0.00     0.183 C 
HETATM   34  C   UNL     1      22.810  69.711  24.315  1.00  0.00     0.204 C 
BRANCH  31  35
HETATM   35  C   UNL     1      20.890  69.831  27.882  1.00  0.00     0.203 C 
BRANCH  35  36
HETATM   36  O   UNL     1      19.541  70.191  28.087  1.00  0.00    -0.370 OA
BRANCH  36  37
HETATM   37  C   UNL     1      19.353  70.646  29.397  1.00  0.00     0.262 C 
BRANCH  37  38
HETATM   38  C   UNL     1      20.031  71.968  29.544  1.00  0.00     0.321 C 
HETATM   39  O   UNL     1      20.724  72.198  30.524  1.00  0.00    -0.260 OA
BRANCH  38  40
HETATM   40  O   UNL     1      19.903  72.900  28.583  1.00  0.00    -0.147 OA
HETATM   41 NA   UNL     1      19.272  72.368  26.749  1.00  0.00     0.000 Na
ENDBRANCH  38  40
ENDBRANCH  37  38
ENDBRANCH  36  37
ENDBRANCH  35  36
ENDBRANCH  31  35
BRANCH  32  42
HETATM   42  O   UNL     1      19.206  69.210  25.112  1.00  0.00    -0.348 OA
BRANCH  42  43
HETATM   43  C   UNL     1      18.331  70.174  24.566  1.00  0.00     0.292 C 
HETATM   44  O   UNL     1      17.718  70.876  25.651  1.00  0.00    -0.351 OA
HETATM   45  C   UNL     1      16.303  70.940  25.615  1.00  0.00     0.151 C 
HETATM   46  C   UNL     1      15.806  71.428  24.234  1.00  0.00     0.068 C 
HETATM   47  C   UNL     1      16.365  70.569  23.068  1.00  0.00     0.154 C 
HETATM   48  C   UNL     1      17.349  69.480  23.551  1.00  0.00     0.205 C 
BRANCH  45  49
HETATM   49  C   UNL     1      15.825  71.918  26.709  1.00  0.00     0.200 C 
BRANCH  49  50
HETATM   50  O   UNL     1      16.893  72.572  27.370  1.00  0.00    -0.379 OA
BRANCH  50  51
HETATM   51  C   UNL     1      16.467  73.706  28.100  1.00  0.00     0.281 C 
BRANCH  51  52
HETATM   52  C   UNL     1      16.950  74.956  27.417  1.00  0.00     0.313 C 
HETATM   53  O   UNL     1      17.149  75.979  28.053  1.00  0.00    -0.260 OA
BRANCH  52  54
HETATM   54  O   UNL     1      17.164  74.953  26.088  1.00  0.00    -0.148 OA
HETATM   55 NA   UNL     1      18.092  73.407  25.195  1.00  0.00     0.000 Na
ENDBRANCH  52  54
ENDBRANCH  51  52
ENDBRANCH  50  51
ENDBRANCH  49  50
ENDBRANCH  45  49
BRANCH  47  56
HETATM   56  O   UNL     1      15.337  70.020  22.280  1.00  0.00    -0.393 OA
HETATM   57  H   UNL     1      14.529  70.587  22.399  1.00  0.00     0.210 HD
ENDBRANCH  47  56
BRANCH  48  58
HETATM   58  O   UNL     1      16.581  68.418  24.102  1.00  0.00    -0.376 OA
BRANCH  58  59
HETATM   59  C   UNL     1      16.417  67.293  23.252  1.00  0.00     0.194 C 
BRANCH  59  60
HETATM   60  C   UNL     1      17.750  66.725  22.670  1.00  0.00     0.116 C 
BRANCH  60  61
HETATM   61  C   UNL     1      17.747  66.797  21.100  1.00  0.00     0.053 C 
BRANCH  61  62
HETATM   62  C   UNL     1      18.984  66.281  20.271  1.00  0.00     0.094 C 
BRANCH  62  63
HETATM   63  C   UNL     1      18.533  65.782  18.838  1.00  0.00     0.051 C 
BRANCH  63  64
HETATM   64  C   UNL     1      19.598  65.224  17.834  1.00  0.00     0.094 C 
BRANCH  64  65
HETATM   65  C   UNL     1      19.140  63.889  17.144  1.00  0.00     0.051 C 
BRANCH  65  66
HETATM   66  C   UNL     1      17.596  63.717  17.175  1.00  0.00     0.094 C 
BRANCH  66  67
HETATM   67  C   UNL     1      16.811  64.311  15.957  1.00  0.00     0.051 C 
BRANCH  67  68
HETATM   68  C   UNL     1      17.511  64.478  14.571  1.00  0.00     0.089 C 
HETATM   69  C   UNL     1      17.350  63.180  13.761  1.00  0.00     0.033 C 
BRANCH  68  70
HETATM   70  N   UNL     1      17.047  65.590  13.759  1.00  0.00    -0.334 N 
HETATM   71  C   UNL     1      16.546  66.808  14.260  1.00  0.00     0.210 A 
HETATM   72  N   UNL     1      16.211  67.600  13.317  1.00  0.00    -0.254 NA
HETATM   73  C   UNL     1      16.491  66.923  12.108  1.00  0.00     0.150 A 
HETATM   74  C   UNL     1      16.998  65.718  12.358  1.00  0.00     0.082 A 
ENDBRANCH  68  70
ENDBRANCH  67  68
ENDBRANCH  66  67
BRANCH  66  75
HETATM   75  N   UNL     1      17.192  62.337  17.486  1.00  0.00    -0.345 N 
HETATM   76  C   UNL     1      17.854  61.415  18.219  1.00  0.00     0.209 A 
HETATM   77  N   UNL     1      17.173  60.254  18.307  1.00  0.00    -0.255 NA
HETATM   78  C   UNL     1      16.041  60.462  17.607  1.00  0.00     0.135 A 
HETATM   79  C   UNL     1      16.048  61.743  17.104  1.00  0.00     0.111 A 
ENDBRANCH  66  75
ENDBRANCH  65  66
ENDBRANCH  64  65
BRANCH  64  80
HETATM   80  N   UNL     1      19.889  66.202  16.764  1.00  0.00    -0.345 N 
HETATM   81  C   UNL     1      20.587  66.026  15.623  1.00  0.00     0.209 A 
HETATM   82  N   UNL     1      20.612  67.141  14.863  1.00  0.00    -0.255 NA
HETATM   83  C   UNL     1      19.893  68.049  15.551  1.00  0.00     0.135 A 
HETATM   84  C   UNL     1      19.439  67.474  16.713  1.00  0.00     0.111 A 
ENDBRANCH  64  80
ENDBRANCH  63  64
ENDBRANCH  62  63
BRANCH  62  85
HETATM   85  N   UNL     1      20.163  67.174  20.354  1.00  0.00    -0.345 N 
HETATM   86  C   UNL     1      21.412  66.798  20.705  1.00  0.00     0.209 A 
HETATM   87  N   UNL     1      22.270  67.834  20.780  1.00  0.00    -0.255 NA
HETATM   88  C   UNL     1      21.525  68.915  20.495  1.00  0.00     0.135 A 
HETATM   89  C   UNL     1      20.230  68.520  20.259  1.00  0.00     0.111 A 
ENDBRANCH  62  85
ENDBRANCH  61  62
ENDBRANCH  60  61
BRANCH  60  90
HETATM   90  N   UNL     1      18.117  65.403  23.232  1.00  0.00    -0.343 N 
HETATM   91  C   UNL     1      17.399  64.256  23.278  1.00  0.00     0.111 A 
HETATM   92  C   UNL     1      18.153  63.292  23.904  1.00  0.00     0.135 A 
HETATM   93  N   UNL     1      19.331  63.823  24.273  1.00  0.00    -0.255 NA
HETATM   94  C   UNL     1      19.278  65.104  23.861  1.00  0.00     0.209 A 
ENDBRANCH  60  90
ENDBRANCH  59  60
ENDBRANCH  58  59
ENDBRANCH  48  58
ENDBRANCH  42  43
ENDBRANCH  32  42
BRANCH  33  95
HETATM   95  O   UNL     1      21.251  67.857  23.876  1.00  0.00    -0.390 OA
HETATM   96  H   UNL     1      21.193  67.691  22.901  1.00  0.00     0.210 HD
ENDBRANCH  33  95
BRANCH  34  97
HETATM   97  O   UNL     1      23.646  69.225  23.295  1.00  0.00    -0.388 OA
HETATM   98  H   UNL     1      23.635  69.882  22.554  1.00  0.00     0.210 HD
ENDBRANCH  34  97
ENDBRANCH  28  29
ENDBRANCH   1  28
BRANCH   3  99
HETATM   99  O   UNL     1      26.731  68.530  23.994  1.00  0.00    -0.390 OA
HETATM  100  H   UNL     1      27.155  67.638  24.104  1.00  0.00     0.210 HD
ENDBRANCH   3  99
BRANCH   4 101
HETATM  101  O   UNL     1      27.206  67.206  26.478  1.00  0.00    -0.376 OA
BRANCH 101 102
HETATM  102  C   UNL     1      27.908  66.346  27.376  1.00  0.00     0.194 C 
BRANCH 102 103
HETATM  103  C   UNL     1      26.956  65.611  28.410  1.00  0.00     0.116 C 
BRANCH 103 104
HETATM  104  N   UNL     1      27.532  65.587  29.779  1.00  0.00    -0.343 N 
HETATM  105  C   UNL     1      27.878  64.522  30.536  1.00  0.00     0.111 A 
HETATM  106  C   UNL     1      28.360  64.979  31.741  1.00  0.00     0.135 A 
HETATM  107  N   UNL     1      28.298  66.320  31.760  1.00  0.00    -0.255 NA
HETATM  108  C   UNL     1      27.784  66.662  30.561  1.00  0.00     0.209 A 
ENDBRANCH 103 104
BRANCH 103 109
HETATM  109  C   UNL     1      25.492  66.192  28.313  1.00  0.00     0.053 C 
BRANCH 109 110
HETATM  110  C   UNL     1      24.202  65.553  28.985  1.00  0.00     0.094 C 
BRANCH 110 111
HETATM  111  C   UNL     1      24.001  64.002  28.704  1.00  0.00     0.051 C 
BRANCH 111 112
HETATM  112  C   UNL     1      22.553  63.371  28.833  1.00  0.00     0.094 C 
BRANCH 112 113
HETATM  113  N   UNL     1      21.476  64.335  28.545  1.00  0.00    -0.345 N 
HETATM  114  C   UNL     1      21.137  64.855  27.350  1.00  0.00     0.111 A 
HETATM  115  C   UNL     1      20.129  65.773  27.555  1.00  0.00     0.135 A 
HETATM  116  N   UNL     1      19.852  65.843  28.871  1.00  0.00    -0.255 NA
HETATM  117  C   UNL     1      20.692  64.963  29.448  1.00  0.00     0.209 A 
ENDBRANCH 112 113
BRANCH 112 118
HETATM  118  C   UNL     1      22.227  62.725  30.234  1.00  0.00     0.051 C 
BRANCH 118 119
HETATM  119  C   UNL     1      22.326  61.169  30.203  1.00  0.00     0.094 C 
BRANCH 119 120
HETATM  120  C   UNL     1      21.905  60.462  28.866  1.00  0.00     0.051 C 
BRANCH 120 121
HETATM  121  C   UNL     1      20.419  60.030  28.617  1.00  0.00     0.089 C 
HETATM  122  C   UNL     1      19.960  59.088  29.745  1.00  0.00     0.033 C 
BRANCH 121 123
HETATM  123  N   UNL     1      19.456  61.113  28.503  1.00  0.00    -0.334 N 
HETATM  124  C   UNL     1      18.665  61.716  29.498  1.00  0.00     0.082 A 
HETATM  125  C   UNL     1      17.940  62.650  28.884  1.00  0.00     0.150 A 
HETATM  126  N   UNL     1      18.232  62.672  27.501  1.00  0.00    -0.254 NA
HETATM  127  C   UNL     1      19.112  61.770  27.304  1.00  0.00     0.210 A 
ENDBRANCH 121 123
ENDBRANCH 120 121
ENDBRANCH 119 120
BRANCH 119 128
HETATM  128  N   UNL     1      23.659  60.721  30.653  1.00  0.00    -0.345 N 
HETATM  129  C   UNL     1      24.523  61.373  31.464  1.00  0.00     0.209 A 
HETATM  130  N   UNL     1      25.645  60.663  31.692  1.00  0.00    -0.255 NA
HETATM  131  C   UNL     1      25.474  59.519  31.001  1.00  0.00     0.135 A 
HETATM  132  C   UNL     1      24.252  59.549  30.365  1.00  0.00     0.111 A 
ENDBRANCH 119 128
ENDBRANCH 118 119
ENDBRANCH 112 118
ENDBRANCH 111 112
ENDBRANCH 110 111
BRANCH 110 133
HETATM  133  N   UNL     1      23.984  66.020  30.380  1.00  0.00    -0.345 N 
HETATM  134  C   UNL     1      24.392  65.480  31.545  1.00  0.00     0.111 A 
HETATM  135  C   UNL     1      24.030  66.321  32.572  1.00  0.00     0.135 A 
HETATM  136  N   UNL     1      23.439  67.410  32.059  1.00  0.00    -0.255 NA
HETATM  137  C   UNL     1      23.444  67.206  30.725  1.00  0.00     0.209 A 
ENDBRANCH 110 133
ENDBRANCH 109 110
ENDBRANCH 103 109
ENDBRANCH 102 103
ENDBRANCH 101 102
ENDBRANCH   4 101
BRANCH  13 138
HETATM  138  O   UNL     1      32.027  68.596  28.552  1.00  0.00    -0.390 OA
HETATM  139  H   UNL     1      31.592  67.778  28.197  1.00  0.00     0.210 HD
ENDBRANCH  13 138
BRANCH  17 140
HETATM  140  O   UNL     1      33.794  70.630  27.259  1.00  0.00    -0.388 OA
HETATM  141  H   UNL     1      33.883  71.257  26.497  1.00  0.00     0.210 HD
ENDBRANCH  17 140
BRANCH  15 142
HETATM  142  O   UNL     1      33.885  70.832  29.896  1.00  0.00    -0.348 OA
BRANCH 142 143
HETATM  143  C   UNL     1      34.618  71.750  30.704  1.00  0.00     0.187 C 
HETATM  144  C   UNL     1      36.116  71.277  30.919  1.00  0.00     0.177 C 
HETATM  145  O   UNL     1      37.037  72.359  31.134  1.00  0.00    -0.378 OA
HETATM  146  C   UNL     1      36.433  73.460  31.772  1.00  0.00     0.202 C 
HETATM  147  C   UNL     1      35.435  74.152  30.819  1.00  0.00     0.173 C 
HETATM  148  C   UNL     1      34.658  73.104  29.967  1.00  0.00     0.180 C 
BRANCH 144 149
HETATM  149  C   UNL     1      36.258  70.252  32.059  1.00  0.00     0.215 C 
BRANCH 149 150
HETATM  150  O   UNL     1      35.205  70.121  32.971  1.00  0.00    -0.303 OA
BRANCH 150 151
HETATM  151  C   UNL     1      34.215  69.223  33.279  1.00  0.00     0.323 C 
HETATM  152  C   UNL     1      34.448  68.367  34.497  1.00  0.00     0.147 C 
HETATM  153  O   UNL     1      33.180  69.836  33.490  1.00  0.00    -0.241 OA
BRANCH 151 154
HETATM  154  O   UNL     1      34.048  68.358  32.259  1.00  0.00    -0.132 OA
HETATM  155 NA   UNL     1      32.751  68.738  30.760  1.00  0.00     0.000 Na
ENDBRANCH 151 154
ENDBRANCH 150 151
ENDBRANCH 149 150
ENDBRANCH 144 149
BRANCH 147 156
HETATM  156  O   UNL     1      36.042  75.120  29.996  1.00  0.00    -0.391 OA
HETATM  157  H   UNL     1      36.882  75.417  30.433  1.00  0.00     0.210 HD
ENDBRANCH 147 156
BRANCH 148 158
HETATM  158  O   UNL     1      35.217  72.938  28.681  1.00  0.00    -0.390 OA
HETATM  159  H   UNL     1      35.671  73.774  28.408  1.00  0.00     0.210 HD
ENDBRANCH 148 158
ENDBRANCH 142 143
ENDBRANCH  15 142
TORSDOF 60
ENDMDL
MODEL 3
REMARK VINA RESULT:      -5.9      2.329      4.118
REMARK WARNING: 32 MAX_TORS EXCEEDED!!!
REMARK  60 active torsions:
REMARK  status: ('A' for Active; 'I' for Inactive)
REMARK    1  A    between atoms: C_1  and  O_30 
REMARK    2  A    between atoms: C_3  and  O_9 
REMARK    3  A    between atoms: C_4  and  O_11 
REMARK    4  A    between atoms: O_11  and  C_106 
REMARK    5  A    between atoms: O_14  and  C_18 
REMARK    6  A    between atoms: O_19  and  C_22 
REMARK    7  A    between atoms: O_19  and  C_42 
REMARK    8  A    between atoms: O_21  and  C_24 
REMARK    9  A    between atoms: O_26  and  C_29 
REMARK   10  A    between atoms: C_28  and  C_34 
REMARK   11  A    between atoms: O_30  and  C_33 
REMARK   12  A    between atoms: C_31  and  O_53 
REMARK   13  A    between atoms: O_32  and  C_35 
REMARK   14  A    between atoms: C_34  and  O_59 
REMARK   15  A    between atoms: O_37  and  C_41 
REMARK   16  A    between atoms: C_39  and  C_45 
REMARK   17  A    between atoms: O_40  and  C_45 
REMARK   18  A    between atoms: O_40  and  C_157 
REMARK   19  A    between atoms: O_43  and  C_46 
REMARK   20  A    between atoms: O_48  and  C_52 
REMARK   21  A    between atoms: C_50  and  C_57 
REMARK   22  A    between atoms: O_51  and  C_57 
REMARK   23  A    between atoms: O_51  and  C_135 
REMARK   24  A    between atoms: O_53  and  C_56 
REMARK   25  A    between atoms: O_55  and  C_58 
REMARK   26  A    between atoms: O_55  and  C_60 
REMARK   27  A    between atoms: O_59  and  C_141 
REMARK   28  A    between atoms: C_60  and  C_61 
REMARK   29  A    between atoms: C_61  and  C_62 
REMARK   30  A    between atoms: C_61  and  N_75 
REMARK   31  A    between atoms: C_62  and  C_63 
REMARK   32  A    between atoms: C_63  and  C_64 
REMARK   33  A    between atoms: C_63  and  N_89 
REMARK   34  A    between atoms: C_64  and  C_65 
REMARK   35  A    between atoms: C_65  and  C_66 
REMARK   36  A    between atoms: C_65  and  N_79 
REMARK   37  A    between atoms: C_66  and  C_67 
REMARK   38  A    between atoms: C_67  and  C_68 
REMARK   39  A    between atoms: C_67  and  N_94 
REMARK   40  A    between atoms: C_68  and  C_69 
REMARK   41  A    between atoms: C_69  and  N_84 
REMARK   42  A    between atoms: N_101  and  C_107 
REMARK   43  A    between atoms: C_106  and  C_107 
REMARK   44  A    between atoms: C_107  and  C_114 
REMARK   45  A    between atoms: N_110  and  C_116 
REMARK   46  A    between atoms: C_112  and  C_116 
REMARK   47  A    between atoms: C_112  and  C_118 
REMARK   48  A    between atoms: N_113  and  C_123 
REMARK   49  A    between atoms: C_114  and  C_118 
REMARK   50  A    between atoms: C_116  and  C_120 
REMARK   51  A    between atoms: N_117  and  C_118 
REMARK   52  A    between atoms: C_120  and  C_125 
REMARK   53  A    between atoms: C_123  and  C_124 
REMARK   54  A    between atoms: C_124  and  C_125 
REMARK   55  A    between atoms: C_125  and  N_128 
REMARK   56  A    between atoms: C_135  and  C_136 
REMARK   57  A    between atoms: C_136  and  O_138 
REMARK   58  A    between atoms: C_141  and  C_142 
REMARK   59  A    between atoms: C_142  and  O_143 
REMARK   60  A    between atoms: C_157  and  O_158 
ROOT
HETATM    1  C   UNL     1      25.787  70.023  25.995  1.00  0.00     0.187 C 
HETATM    2  C   UNL     1      25.964  70.444  27.510  1.00  0.00     0.180 C 
HETATM    3  C   UNL     1      27.075  69.416  25.348  1.00  0.00     0.183 C 
HETATM    4  C   UNL     1      27.915  68.567  26.355  1.00  0.00     0.208 C 
HETATM    5  C   UNL     1      28.153  69.579  27.513  1.00  0.00     0.292 C 
HETATM    6  C   UNL     1      26.167  71.978  27.739  1.00  0.00     0.203 C 
HETATM    7  O   UNL     1      26.216  72.455  29.085  1.00  0.00    -0.370 OA
HETATM    8  O   UNL     1      26.937  69.677  28.230  1.00  0.00    -0.348 OA
HETATM    9  O   UNL     1      29.249  69.239  28.378  1.00  0.00    -0.348 OA
HETATM   10  O   UNL     1      31.789  70.888  30.328  1.00  0.00    -0.348 OA
HETATM   11  C   UNL     1      30.464  70.914  29.803  1.00  0.00     0.180 C 
HETATM   12  O   UNL     1      30.159  72.960  31.082  1.00  0.00    -0.304 OA
HETATM   13  C   UNL     1      31.660  69.662  27.921  1.00  0.00     0.183 C 
HETATM   14  C   UNL     1      30.308  70.233  28.403  1.00  0.00     0.187 C 
HETATM   15  C   UNL     1      32.847  71.318  29.479  1.00  0.00     0.292 C 
HETATM   16  C   UNL     1      29.922  72.355  29.853  1.00  0.00     0.215 C 
HETATM   17  C   UNL     1      32.679  70.826  28.012  1.00  0.00     0.204 C 
HETATM   18 NA   UNL     1      25.505  69.263  32.212  1.00  0.00     0.050 Na
HETATM   19  C   UNL     1      25.948  71.461  30.047  1.00  0.00     0.261 C 
HETATM   20  C   UNL     1      25.068  71.961  31.149  1.00  0.00     0.310 C 
HETATM   21  O   UNL     1      24.750  71.134  32.163  1.00  0.00    -0.185 OA
HETATM   22  O   UNL     1      24.645  73.105  31.146  1.00  0.00    -0.261 OA
HETATM   23 NA   UNL     1      27.848  70.718  33.605  1.00  0.00     0.051 Na
HETATM   24  C   UNL     1      30.522  71.741  33.062  1.00  0.00     0.146 C 
HETATM   25  C   UNL     1      29.609  72.653  32.291  1.00  0.00     0.314 C 
HETATM   26  O   UNL     1      28.433  72.009  32.174  1.00  0.00    -0.172 OA
HETATM   27  O   UNL     1      29.497  73.664  32.966  1.00  0.00    -0.242 OA
ENDROOT
BRANCH   1  28
HETATM   28  O   UNL     1      24.706  69.105  25.879  1.00  0.00    -0.348 OA
BRANCH  28  29
HETATM   29  C   UNL     1      23.414  69.734  25.850  1.00  0.00     0.292 C 
HETATM   30  O   UNL     1      22.527  69.005  26.691  1.00  0.00    -0.348 OA
HETATM   31  C   UNL     1      21.175  69.498  26.720  1.00  0.00     0.180 C 
HETATM   32  C   UNL     1      20.633  70.011  25.345  1.00  0.00     0.187 C 
HETATM   33  C   UNL     1      21.450  69.393  24.212  1.00  0.00     0.183 C 
HETATM   34  C   UNL     1      22.920  69.823  24.373  1.00  0.00     0.204 C 
BRANCH  31  35
HETATM   35  C   UNL     1      20.951  70.553  27.839  1.00  0.00     0.203 C 
BRANCH  35  36
HETATM   36  O   UNL     1      22.052  70.723  28.704  1.00  0.00    -0.370 OA
BRANCH  36  37
HETATM   37  C   UNL     1      21.799  70.116  29.940  1.00  0.00     0.262 C 
BRANCH  37  38
HETATM   38  C   UNL     1      21.296  71.155  30.887  1.00  0.00     0.321 C 
HETATM   39  O   UNL     1      20.679  70.826  31.889  1.00  0.00    -0.260 OA
BRANCH  38  40
HETATM   40  O   UNL     1      21.544  72.455  30.652  1.00  0.00    -0.147 OA
HETATM   41 NA   UNL     1      22.916  72.982  29.278  1.00  0.00     0.000 Na
ENDBRANCH  38  40
ENDBRANCH  37  38
ENDBRANCH  36  37
ENDBRANCH  35  36
ENDBRANCH  31  35
BRANCH  32  42
HETATM   42  O   UNL     1      19.285  69.599  25.155  1.00  0.00    -0.348 OA
BRANCH  42  43
HETATM   43  C   UNL     1      18.411  70.586  24.648  1.00  0.00     0.292 C 
HETATM   44  O   UNL     1      18.265  71.598  25.648  1.00  0.00    -0.351 OA
HETATM   45  C   UNL     1      16.929  71.929  25.989  1.00  0.00     0.151 C 
HETATM   46  C   UNL     1      16.089  72.217  24.724  1.00  0.00     0.068 C 
HETATM   47  C   UNL     1      16.140  71.048  23.702  1.00  0.00     0.154 C 
HETATM   48  C   UNL     1      17.081  69.908  24.151  1.00  0.00     0.205 C 
BRANCH  45  49
HETATM   49  C   UNL     1      16.947  73.182  26.892  1.00  0.00     0.200 C 
BRANCH  49  50
HETATM   50  O   UNL     1      18.133  73.294  27.657  1.00  0.00    -0.379 OA
BRANCH  50  51
HETATM   51  C   UNL     1      17.897  73.814  28.951  1.00  0.00     0.281 C 
BRANCH  51  52
HETATM   52  C   UNL     1      18.041  72.717  29.969  1.00  0.00     0.313 C 
HETATM   53  O   UNL     1      18.071  71.545  29.627  1.00  0.00    -0.260 OA
BRANCH  52  54
HETATM   54  O   UNL     1      18.136  73.024  31.276  1.00  0.00    -0.148 OA
HETATM   55 NA   UNL     1      16.778  72.345  32.597  1.00  0.00     0.000 Na
ENDBRANCH  52  54
ENDBRANCH  51  52
ENDBRANCH  50  51
ENDBRANCH  49  50
ENDBRANCH  45  49
BRANCH  47  56
HETATM   56  O   UNL     1      14.857  70.565  23.393  1.00  0.00    -0.393 OA
HETATM   57  H   UNL     1      14.961  69.653  23.009  1.00  0.00     0.210 HD
ENDBRANCH  47  56
BRANCH  48  58
HETATM   58  O   UNL     1      16.398  69.150  25.141  1.00  0.00    -0.376 OA
BRANCH  58  59
HETATM   59  C   UNL     1      16.116  67.806  24.780  1.00  0.00     0.194 C 
BRANCH  59  60
HETATM   60  C   UNL     1      16.973  67.266  23.591  1.00  0.00     0.116 C 
BRANCH  60  61
HETATM   61  C   UNL     1      16.054  66.626  22.489  1.00  0.00     0.053 C 
BRANCH  61  62
HETATM   62  C   UNL     1      15.192  67.536  21.533  1.00  0.00     0.094 C 
BRANCH  62  63
HETATM   63  C   UNL     1      16.120  68.357  20.549  1.00  0.00     0.051 C 
BRANCH  63  64
HETATM   64  C   UNL     1      17.578  67.865  20.257  1.00  0.00     0.094 C 
BRANCH  64  65
HETATM   65  C   UNL     1      17.801  67.489  18.748  1.00  0.00     0.051 C 
BRANCH  65  66
HETATM   66  C   UNL     1      18.152  65.985  18.568  1.00  0.00     0.094 C 
BRANCH  66  67
HETATM   67  C   UNL     1      19.499  65.511  19.210  1.00  0.00     0.051 C 
BRANCH  67  68
HETATM   68  C   UNL     1      20.799  65.428  18.348  1.00  0.00     0.089 C 
HETATM   69  C   UNL     1      20.418  65.285  16.864  1.00  0.00     0.033 C 
BRANCH  68  70
HETATM   70  N   UNL     1      21.720  66.544  18.483  1.00  0.00    -0.334 N 
HETATM   71  C   UNL     1      21.649  67.747  17.755  1.00  0.00     0.210 A 
HETATM   72  N   UNL     1      22.591  68.546  18.078  1.00  0.00    -0.254 NA
HETATM   73  C   UNL     1      23.348  67.890  19.074  1.00  0.00     0.150 A 
HETATM   74  C   UNL     1      22.834  66.689  19.331  1.00  0.00     0.082 A 
ENDBRANCH  68  70
ENDBRANCH  67  68
ENDBRANCH  66  67
BRANCH  66  75
HETATM   75  N   UNL     1      17.025  65.103  18.906  1.00  0.00    -0.345 N 
HETATM   76  C   UNL     1      15.849  64.959  18.258  1.00  0.00     0.209 A 
HETATM   77  N   UNL     1      15.054  64.043  18.848  1.00  0.00    -0.255 NA
HETATM   78  C   UNL     1      15.764  63.594  19.901  1.00  0.00     0.135 A 
HETATM   79  C   UNL     1      16.978  64.241  19.938  1.00  0.00     0.111 A 
ENDBRANCH  66  75
ENDBRANCH  65  66
ENDBRANCH  64  65
BRANCH  64  80
HETATM   80  N   UNL     1      18.573  68.900  20.609  1.00  0.00    -0.345 N 
HETATM   81  C   UNL     1      18.389  70.224  20.793  1.00  0.00     0.209 A 
HETATM   82  N   UNL     1      19.529  70.854  21.147  1.00  0.00    -0.255 NA
HETATM   83  C   UNL     1      20.463  69.884  21.197  1.00  0.00     0.135 A 
HETATM   84  C   UNL     1      19.878  68.682  20.876  1.00  0.00     0.111 A 
ENDBRANCH  64  80
ENDBRANCH  63  64
ENDBRANCH  62  63
BRANCH  62  85
HETATM   85  N   UNL     1      14.017  66.840  20.958  1.00  0.00    -0.345 N 
HETATM   86  C   UNL     1      13.368  67.194  19.828  1.00  0.00     0.209 A 
HETATM   87  N   UNL     1      12.282  66.435  19.587  1.00  0.00    -0.255 NA
HETATM   88  C   UNL     1      12.223  65.585  20.626  1.00  0.00     0.135 A 
HETATM   89  C   UNL     1      13.267  65.846  21.481  1.00  0.00     0.111 A 
ENDBRANCH  62  85
ENDBRANCH  61  62
ENDBRANCH  60  61
BRANCH  60  90
HETATM   90  N   UNL     1      18.108  66.417  24.027  1.00  0.00    -0.343 N 
HETATM   91  C   UNL     1      18.533  66.123  25.277  1.00  0.00     0.111 A 
HETATM   92  C   UNL     1      19.631  65.300  25.184  1.00  0.00     0.135 A 
HETATM   93  N   UNL     1      19.916  65.088  23.888  1.00  0.00    -0.255 NA
HETATM   94  C   UNL     1      18.983  65.784  23.211  1.00  0.00     0.209 A 
ENDBRANCH  60  90
ENDBRANCH  59  60
ENDBRANCH  58  59
ENDBRANCH  48  58
ENDBRANCH  42  43
ENDBRANCH  32  42
BRANCH  33  95
HETATM   95  O   UNL     1      21.286  67.992  24.178  1.00  0.00    -0.390 OA
HETATM   96  H   UNL     1      20.483  67.763  23.644  1.00  0.00     0.210 HD
ENDBRANCH  33  95
BRANCH  34  97
HETATM   97  O   UNL     1      23.749  69.155  23.455  1.00  0.00    -0.388 OA
HETATM   98  H   UNL     1      23.706  69.645  22.595  1.00  0.00     0.210 HD
ENDBRANCH  34  97
ENDBRANCH  28  29
ENDBRANCH   1  28
BRANCH   3  99
HETATM   99  O   UNL     1      26.754  68.686  24.193  1.00  0.00    -0.390 OA
HETATM  100  H   UNL     1      27.277  67.842  24.231  1.00  0.00     0.210 HD
ENDBRANCH   3  99
BRANCH   4 101
HETATM  101  O   UNL     1      27.195  67.361  26.684  1.00  0.00    -0.376 OA
BRANCH 101 102
HETATM  102  C   UNL     1      27.921  66.424  27.478  1.00  0.00     0.194 C 
BRANCH 102 103
HETATM  103  C   UNL     1      27.030  65.724  28.589  1.00  0.00     0.116 C 
BRANCH 103 104
HETATM  104  N   UNL     1      27.805  65.429  29.820  1.00  0.00    -0.343 N 
HETATM  105  C   UNL     1      27.842  64.290  30.548  1.00  0.00     0.111 A 
HETATM  106  C   UNL     1      28.690  64.478  31.615  1.00  0.00     0.135 A 
HETATM  107  N   UNL     1      29.169  65.733  31.580  1.00  0.00    -0.255 NA
HETATM  108  C   UNL     1      28.608  66.289  30.487  1.00  0.00     0.209 A 
ENDBRANCH 103 104
BRANCH 103 109
HETATM  109  C   UNL     1      25.700  66.542  28.817  1.00  0.00     0.053 C 
BRANCH 109 110
HETATM  110  C   UNL     1      24.386  65.986  29.515  1.00  0.00     0.094 C 
BRANCH 110 111
HETATM  111  C   UNL     1      24.109  64.438  29.283  1.00  0.00     0.051 C 
BRANCH 111 112
HETATM  112  C   UNL     1      22.765  63.988  28.574  1.00  0.00     0.094 C 
BRANCH 112 113
HETATM  113  N   UNL     1      21.628  64.878  28.873  1.00  0.00    -0.345 N 
HETATM  114  C   UNL     1      21.311  66.037  28.265  1.00  0.00     0.111 A 
HETATM  115  C   UNL     1      20.222  66.576  28.915  1.00  0.00     0.135 A 
HETATM  116  N   UNL     1      19.871  65.772  29.937  1.00  0.00    -0.255 NA
HETATM  117  C   UNL     1      20.749  64.752  29.891  1.00  0.00     0.209 A 
ENDBRANCH 112 113
BRANCH 112 118
HETATM  118  C   UNL     1      22.294  62.520  28.905  1.00  0.00     0.051 C 
BRANCH 118 119
HETATM  119  C   UNL     1      22.348  61.588  27.656  1.00  0.00     0.094 C 
BRANCH 119 120
HETATM  120  C   UNL     1      23.003  60.176  27.857  1.00  0.00     0.051 C 
BRANCH 120 121
HETATM  121  C   UNL     1      23.343  59.644  29.291  1.00  0.00     0.089 C 
HETATM  122  C   UNL     1      22.076  59.052  29.935  1.00  0.00     0.033 C 
BRANCH 121 123
HETATM  123  N   UNL     1      24.402  58.650  29.363  1.00  0.00    -0.334 N 
HETATM  124  C   UNL     1      24.744  57.781  30.416  1.00  0.00     0.082 A 
HETATM  125  C   UNL     1      25.794  57.079  29.994  1.00  0.00     0.150 A 
HETATM  126  N   UNL     1      26.158  57.470  28.685  1.00  0.00    -0.254 NA
HETATM  127  C   UNL     1      25.337  58.386  28.342  1.00  0.00     0.210 A 
ENDBRANCH 121 123
ENDBRANCH 120 121
ENDBRANCH 119 120
BRANCH 119 128
HETATM  128  N   UNL     1      21.017  61.480  27.026  1.00  0.00    -0.345 N 
HETATM  129  C   UNL     1      20.596  62.045  25.871  1.00  0.00     0.209 A 
HETATM  130  N   UNL     1      19.323  61.718  25.576  1.00  0.00    -0.255 NA
HETATM  131  C   UNL     1      18.933  60.912  26.583  1.00  0.00     0.135 A 
HETATM  132  C   UNL     1      19.972  60.760  27.475  1.00  0.00     0.111 A 
ENDBRANCH 119 128
ENDBRANCH 118 119
ENDBRANCH 112 118
ENDBRANCH 111 112
ENDBRANCH 110 111
BRANCH 110 133
HETATM  133  N   UNL     1      24.200  66.504  30.897  1.00  0.00    -0.345 N 
HETATM  134  C   UNL     1      23.135  67.111  31.456  1.00  0.00     0.111 A 
HETATM  135  C   UNL     1      23.399  67.324  32.790  1.00  0.00     0.135 A 
HETATM  136  N   UNL     1      24.603  66.813  33.086  1.00  0.00    -0.255 NA
HETATM  137  C   UNL     1      25.055  66.304  31.921  1.00  0.00     0.209 A 
ENDBRANCH 110 133
ENDBRANCH 109 110
ENDBRANCH 103 109
ENDBRANCH 102 103
ENDBRANCH 101 102
ENDBRANCH   4 101
BRANCH  13 138
HETATM  138  O   UNL     1      32.079  68.583  28.717  1.00  0.00    -0.390 OA
HETATM  139  H   UNL     1      31.526  67.803  28.448  1.00  0.00     0.210 HD
ENDBRANCH  13 138
BRANCH  17 140
HETATM  140  O   UNL     1      33.912  70.540  27.399  1.00  0.00    -0.388 OA
HETATM  141  H   UNL     1      34.529  70.204  28.099  1.00  0.00     0.210 HD
ENDBRANCH  17 140
BRANCH  15 142
HETATM  142  O   UNL     1      34.028  70.756  30.033  1.00  0.00    -0.348 OA
BRANCH 142 143
HETATM  143  C   UNL     1      33.948  70.443  31.422  1.00  0.00     0.187 C 
HETATM  144  C   UNL     1      34.902  69.237  31.809  1.00  0.00     0.177 C 
HETATM  145  O   UNL     1      35.359  69.278  33.171  1.00  0.00    -0.378 OA
HETATM  146  C   UNL     1      34.425  69.883  34.034  1.00  0.00     0.202 C 
HETATM  147  C   UNL     1      34.330  71.397  33.744  1.00  0.00     0.173 C 
HETATM  148  C   UNL     1      34.416  71.680  32.215  1.00  0.00     0.180 C 
BRANCH 144 149
HETATM  149  C   UNL     1      34.269  67.863  31.524  1.00  0.00     0.215 C 
BRANCH 149 150
HETATM  150  O   UNL     1      34.730  67.134  30.423  1.00  0.00    -0.303 OA
BRANCH 150 151
HETATM  151  C   UNL     1      35.746  66.264  30.117  1.00  0.00     0.323 C 
HETATM  152  C   UNL     1      36.140  66.185  28.665  1.00  0.00     0.147 C 
HETATM  153  O   UNL     1      36.750  66.604  30.722  1.00  0.00    -0.241 OA
BRANCH 151 154
HETATM  154  O   UNL     1      35.394  65.009  30.461  1.00  0.00    -0.132 OA
HETATM  155 NA   UNL     1      36.780  63.577  30.778  1.00  0.00     0.000 Na
ENDBRANCH 151 154
ENDBRANCH 150 151
ENDBRANCH 149 150
ENDBRANCH 144 149
BRANCH 147 156
HETATM  156  O   UNL     1      35.286  72.152  34.451  1.00  0.00    -0.391 OA
HETATM  157  H   UNL     1      35.168  71.974  35.421  1.00  0.00     0.210 HD
ENDBRANCH 147 156
BRANCH 148 158
HETATM  158  O   UNL     1      35.717  72.049  31.811  1.00  0.00    -0.390 OA
HETATM  159  H   UNL     1      36.290  71.243  31.764  1.00  0.00     0.210 HD
ENDBRANCH 148 158
ENDBRANCH 142 143
ENDBRANCH  15 142
TORSDOF 60
ENDMDL
MODEL 4
REMARK VINA RESULT:      -5.8      2.694      5.907
REMARK WARNING: 32 MAX_TORS EXCEEDED!!!
REMARK  60 active torsions:
REMARK  status: ('A' for Active; 'I' for Inactive)
REMARK    1  A    between atoms: C_1  and  O_30 
REMARK    2  A    between atoms: C_3  and  O_9 
REMARK    3  A    between atoms: C_4  and  O_11 
REMARK    4  A    between atoms: O_11  and  C_106 
REMARK    5  A    between atoms: O_14  and  C_18 
REMARK    6  A    between atoms: O_19  and  C_22 
REMARK    7  A    between atoms: O_19  and  C_42 
REMARK    8  A    between atoms: O_21  and  C_24 
REMARK    9  A    between atoms: O_26  and  C_29 
REMARK   10  A    between atoms: C_28  and  C_34 
REMARK   11  A    between atoms: O_30  and  C_33 
REMARK   12  A    between atoms: C_31  and  O_53 
REMARK   13  A    between atoms: O_32  and  C_35 
REMARK   14  A    between atoms: C_34  and  O_59 
REMARK   15  A    between atoms: O_37  and  C_41 
REMARK   16  A    between atoms: C_39  and  C_45 
REMARK   17  A    between atoms: O_40  and  C_45 
REMARK   18  A    between atoms: O_40  and  C_157 
REMARK   19  A    between atoms: O_43  and  C_46 
REMARK   20  A    between atoms: O_48  and  C_52 
REMARK   21  A    between atoms: C_50  and  C_57 
REMARK   22  A    between atoms: O_51  and  C_57 
REMARK   23  A    between atoms: O_51  and  C_135 
REMARK   24  A    between atoms: O_53  and  C_56 
REMARK   25  A    between atoms: O_55  and  C_58 
REMARK   26  A    between atoms: O_55  and  C_60 
REMARK   27  A    between atoms: O_59  and  C_141 
REMARK   28  A    between atoms: C_60  and  C_61 
REMARK   29  A    between atoms: C_61  and  C_62 
REMARK   30  A    between atoms: C_61  and  N_75 
REMARK   31  A    between atoms: C_62  and  C_63 
REMARK   32  A    between atoms: C_63  and  C_64 
REMARK   33  A    between atoms: C_63  and  N_89 
REMARK   34  A    between atoms: C_64  and  C_65 
REMARK   35  A    between atoms: C_65  and  C_66 
REMARK   36  A    between atoms: C_65  and  N_79 
REMARK   37  A    between atoms: C_66  and  C_67 
REMARK   38  A    between atoms: C_67  and  C_68 
REMARK   39  A    between atoms: C_67  and  N_94 
REMARK   40  A    between atoms: C_68  and  C_69 
REMARK   41  A    between atoms: C_69  and  N_84 
REMARK   42  A    between atoms: N_101  and  C_107 
REMARK   43  A    between atoms: C_106  and  C_107 
REMARK   44  A    between atoms: C_107  and  C_114 
REMARK   45  A    between atoms: N_110  and  C_116 
REMARK   46  A    between atoms: C_112  and  C_116 
REMARK   47  A    between atoms: C_112  and  C_118 
REMARK   48  A    between atoms: N_113  and  C_123 
REMARK   49  A    between atoms: C_114  and  C_118 
REMARK   50  A    between atoms: C_116  and  C_120 
REMARK   51  A    between atoms: N_117  and  C_118 
REMARK   52  A    between atoms: C_120  and  C_125 
REMARK   53  A    between atoms: C_123  and  C_124 
REMARK   54  A    between atoms: C_124  and  C_125 
REMARK   55  A    between atoms: C_125  and  N_128 
REMARK   56  A    between atoms: C_135  and  C_136 
REMARK   57  A    between atoms: C_136  and  O_138 
REMARK   58  A    between atoms: C_141  and  C_142 
REMARK   59  A    between atoms: C_142  and  O_143 
REMARK   60  A    between atoms: C_157  and  O_158 
ROOT
HETATM    1  C   UNL     1      27.427  71.737  27.875  1.00  0.00     0.187 C 
HETATM    2  C   UNL     1      28.131  71.790  29.291  1.00  0.00     0.180 C 
HETATM    3  C   UNL     1      28.376  71.311  26.707  1.00  0.00     0.183 C 
HETATM    4  C   UNL     1      29.441  70.255  27.147  1.00  0.00     0.208 C 
HETATM    5  C   UNL     1      30.126  70.968  28.350  1.00  0.00     0.292 C 
HETATM    6  C   UNL     1      28.511  73.229  29.774  1.00  0.00     0.203 C 
HETATM    7  O   UNL     1      29.042  73.375  31.093  1.00  0.00    -0.370 OA
HETATM    8  O   UNL     1      29.231  70.883  29.442  1.00  0.00    -0.348 OA
HETATM    9  O   UNL     1      31.420  70.444  28.686  1.00  0.00    -0.348 OA
HETATM   10  O   UNL     1      34.580  71.610  29.965  1.00  0.00    -0.348 OA
HETATM   11  C   UNL     1      33.162  71.746  29.946  1.00  0.00     0.180 C 
HETATM   12  O   UNL     1      33.452  73.430  31.676  1.00  0.00    -0.304 OA
HETATM   13  C   UNL     1      33.563  70.984  27.537  1.00  0.00     0.183 C 
HETATM   14  C   UNL     1      32.496  71.414  28.569  1.00  0.00     0.187 C 
HETATM   15  C   UNL     1      35.320  72.237  28.924  1.00  0.00     0.292 C 
HETATM   16  C   UNL     1      32.773  73.130  30.501  1.00  0.00     0.215 C 
HETATM   17  C   UNL     1      34.636  72.103  27.533  1.00  0.00     0.204 C 
HETATM   18 NA   UNL     1      29.190  69.528  33.472  1.00  0.00     0.050 Na
HETATM   19  C   UNL     1      29.041  72.180  31.839  1.00  0.00     0.261 C 
HETATM   20  C   UNL     1      28.620  72.397  33.258  1.00  0.00     0.310 C 
HETATM   21  O   UNL     1      28.601  71.352  34.106  1.00  0.00    -0.185 OA
HETATM   22  O   UNL     1      28.304  73.506  33.658  1.00  0.00    -0.261 OA
HETATM   23 NA   UNL     1      31.964  70.636  34.266  1.00  0.00     0.051 Na
HETATM   24  C   UNL     1      34.368  71.782  33.084  1.00  0.00     0.146 C 
HETATM   25  C   UNL     1      33.318  72.842  32.899  1.00  0.00     0.314 C 
HETATM   26  O   UNL     1      32.128  72.233  33.051  1.00  0.00    -0.172 OA
HETATM   27  O   UNL     1      33.512  73.664  33.780  1.00  0.00    -0.242 OA
ENDROOT
BRANCH   1  28
HETATM   28  O   UNL     1      26.306  70.862  27.934  1.00  0.00    -0.348 OA
BRANCH  28  29
HETATM   29  C   UNL     1      25.071  71.525  28.253  1.00  0.00     0.292 C 
HETATM   30  O   UNL     1      24.394  70.780  29.259  1.00  0.00    -0.348 OA
HETATM   31  C   UNL     1      23.111  71.305  29.645  1.00  0.00     0.180 C 
HETATM   32  C   UNL     1      22.265  71.898  28.470  1.00  0.00     0.187 C 
HETATM   33  C   UNL     1      22.751  71.314  27.145  1.00  0.00     0.183 C 
HETATM   34  C   UNL     1      24.231  71.698  26.951  1.00  0.00     0.204 C 
BRANCH  31  35
HETATM   35  C   UNL     1      23.211  72.310  30.826  1.00  0.00     0.203 C 
BRANCH  35  36
HETATM   36  O   UNL     1      22.665  73.582  30.552  1.00  0.00    -0.370 OA
BRANCH  36  37
HETATM   37  C   UNL     1      22.898  74.452  31.624  1.00  0.00     0.262 C 
BRANCH  37  38
HETATM   38  C   UNL     1      23.985  75.401  31.240  1.00  0.00     0.321 C 
HETATM   39  O   UNL     1      24.741  75.846  32.089  1.00  0.00    -0.260 OA
BRANCH  38  40
HETATM   40  O   UNL     1      24.150  75.747  29.951  1.00  0.00    -0.147 OA
HETATM   41 NA   UNL     1      23.810  74.397  28.499  1.00  0.00     0.000 Na
ENDBRANCH  38  40
ENDBRANCH  37  38
ENDBRANCH  36  37
ENDBRANCH  35  36
ENDBRANCH  31  35
BRANCH  32  42
HETATM   42  O   UNL     1      20.897  71.531  28.605  1.00  0.00    -0.348 OA
BRANCH  42  43
HETATM   43  C   UNL     1      19.976  72.602  28.614  1.00  0.00     0.292 C 
HETATM   44  O   UNL     1      19.462  72.728  29.943  1.00  0.00    -0.351 OA
HETATM   45  C   UNL     1      18.049  72.745  30.050  1.00  0.00     0.151 C 
HETATM   46  C   UNL     1      17.431  73.772  29.074  1.00  0.00     0.068 C 
HETATM   47  C   UNL     1      17.885  73.539  27.607  1.00  0.00     0.154 C 
HETATM   48  C   UNL     1      18.909  72.389  27.478  1.00  0.00     0.205 C 
BRANCH  45  49
HETATM   49  C   UNL     1      17.669  73.120  31.499  1.00  0.00     0.200 C 
BRANCH  49  50
HETATM   50  O   UNL     1      16.275  73.295  31.676  1.00  0.00    -0.379 OA
BRANCH  50  51
HETATM   51  C   UNL     1      15.581  72.066  31.771  1.00  0.00     0.281 C 
BRANCH  51  52
HETATM   52  C   UNL     1      14.519  72.002  30.709  1.00  0.00     0.313 C 
HETATM   53  O   UNL     1      13.406  72.464  30.908  1.00  0.00    -0.260 OA
BRANCH  52  54
HETATM   54  O   UNL     1      14.791  71.427  29.523  1.00  0.00    -0.148 OA
HETATM   55 NA   UNL     1      13.505  71.580  27.982  1.00  0.00     0.000 Na
ENDBRANCH  52  54
ENDBRANCH  51  52
ENDBRANCH  50  51
ENDBRANCH  49  50
ENDBRANCH  45  49
BRANCH  47  56
HETATM   56  O   UNL     1      16.792  73.354  26.741  1.00  0.00    -0.393 OA
HETATM   57  H   UNL     1      17.057  73.687  25.842  1.00  0.00     0.210 HD
ENDBRANCH  47  56
BRANCH  48  58
HETATM   58  O   UNL     1      18.194  71.163  27.560  1.00  0.00    -0.376 OA
BRANCH  58  59
HETATM   59  C   UNL     1      18.115  70.431  26.346  1.00  0.00     0.194 C 
BRANCH  59  60
HETATM   60  C   UNL     1      17.175  69.186  26.405  1.00  0.00     0.116 C 
BRANCH  60  61
HETATM   61  C   UNL     1      17.766  68.001  25.558  1.00  0.00     0.053 C 
BRANCH  61  62
HETATM   62  C   UNL     1      18.254  68.237  24.078  1.00  0.00     0.094 C 
BRANCH  62  63
HETATM   63  C   UNL     1      19.099  67.005  23.559  1.00  0.00     0.051 C 
BRANCH  63  64
HETATM   64  C   UNL     1      20.246  67.226  22.516  1.00  0.00     0.094 C 
BRANCH  64  65
HETATM   65  C   UNL     1      19.720  67.780  21.143  1.00  0.00     0.051 C 
BRANCH  65  66
HETATM   66  C   UNL     1      20.178  66.900  19.946  1.00  0.00     0.094 C 
BRANCH  66  67
HETATM   67  C   UNL     1      19.087  66.576  18.871  1.00  0.00     0.051 C 
BRANCH  67  68
HETATM   68  C   UNL     1      19.381  65.553  17.729  1.00  0.00     0.089 C 
HETATM   69  C   UNL     1      18.540  64.284  17.953  1.00  0.00     0.033 C 
BRANCH  68  70
HETATM   70  N   UNL     1      19.146  66.030  16.376  1.00  0.00    -0.334 N 
HETATM   71  C   UNL     1      20.133  66.549  15.516  1.00  0.00     0.210 A 
HETATM   72  N   UNL     1      19.639  66.893  14.391  1.00  0.00    -0.254 NA
HETATM   73  C   UNL     1      18.258  66.602  14.455  1.00  0.00     0.150 A 
HETATM   74  C   UNL     1      17.949  66.079  15.639  1.00  0.00     0.082 A 
ENDBRANCH  68  70
ENDBRANCH  67  68
ENDBRANCH  66  67
BRANCH  66  75
HETATM   75  N   UNL     1      21.434  67.378  19.349  1.00  0.00    -0.345 N 
HETATM   76  C   UNL     1      21.611  68.366  18.446  1.00  0.00     0.209 A 
HETATM   77  N   UNL     1      22.911  68.541  18.133  1.00  0.00    -0.255 NA
HETATM   78  C   UNL     1      23.572  67.629  18.873  1.00  0.00     0.135 A 
HETATM   79  C   UNL     1      22.667  66.915  19.625  1.00  0.00     0.111 A 
ENDBRANCH  66  75
ENDBRANCH  65  66
ENDBRANCH  64  65
BRANCH  64  80
HETATM   80  N   UNL     1      21.255  68.180  23.024  1.00  0.00    -0.345 N 
HETATM   81  C   UNL     1      21.982  68.119  24.159  1.00  0.00     0.209 A 
HETATM   82  N   UNL     1      22.838  69.156  24.273  1.00  0.00    -0.255 NA
HETATM   83  C   UNL     1      22.646  69.891  23.161  1.00  0.00     0.135 A 
HETATM   84  C   UNL     1      21.683  69.291  22.387  1.00  0.00     0.111 A 
ENDBRANCH  64  80
ENDBRANCH  63  64
ENDBRANCH  62  63
BRANCH  62  85
HETATM   85  N   UNL     1      17.198  68.777  23.189  1.00  0.00    -0.345 N 
HETATM   86  C   UNL     1      17.169  70.022  22.668  1.00  0.00     0.209 A 
HETATM   87  N   UNL     1      16.048  70.270  21.964  1.00  0.00    -0.255 NA
HETATM   88  C   UNL     1      15.322  69.144  22.070  1.00  0.00     0.135 A 
HETATM   89  C   UNL     1      16.011  68.236  22.840  1.00  0.00     0.111 A 
ENDBRANCH  62  85
ENDBRANCH  61  62
ENDBRANCH  60  61
BRANCH  60  90
HETATM   90  N   UNL     1      15.757  69.510  26.117  1.00  0.00    -0.343 N 
HETATM   91  C   UNL     1      14.659  68.722  26.200  1.00  0.00     0.111 A 
HETATM   92  C   UNL     1      13.561  69.461  25.826  1.00  0.00     0.135 A 
HETATM   93  N   UNL     1      13.956  70.700  25.488  1.00  0.00    -0.255 NA
HETATM   94  C   UNL     1      15.291  70.698  25.665  1.00  0.00     0.209 A 
ENDBRANCH  60  90
ENDBRANCH  59  60
ENDBRANCH  58  59
ENDBRANCH  48  58
ENDBRANCH  42  43
ENDBRANCH  32  42
BRANCH  33  95
HETATM   95  O   UNL     1      22.532  69.922  27.096  1.00  0.00    -0.390 OA
HETATM   96  H   UNL     1      23.151  69.510  26.442  1.00  0.00     0.210 HD
ENDBRANCH  33  95
BRANCH  34  97
HETATM   97  O   UNL     1      24.780  71.055  25.829  1.00  0.00    -0.388 OA
HETATM   98  H   UNL     1      24.769  70.079  26.001  1.00  0.00     0.210 HD
ENDBRANCH  34  97
ENDBRANCH  28  29
ENDBRANCH   1  28
BRANCH   3  99
HETATM   99  O   UNL     1      27.635  70.871  25.600  1.00  0.00    -0.390 OA
HETATM  100  H   UNL     1      26.693  70.780  25.900  1.00  0.00     0.210 HD
ENDBRANCH   3  99
BRANCH   4 101
HETATM  101  O   UNL     1      28.788  69.000  27.423  1.00  0.00    -0.376 OA
BRANCH 101 102
HETATM  102  C   UNL     1      29.660  67.937  27.804  1.00  0.00     0.194 C 
BRANCH 102 103
HETATM  103  C   UNL     1      29.396  67.409  29.276  1.00  0.00     0.116 C 
BRANCH 103 104
HETATM  104  N   UNL     1      30.486  67.791  30.210  1.00  0.00    -0.343 N 
HETATM  105  C   UNL     1      30.395  68.350  31.437  1.00  0.00     0.111 A 
HETATM  106  C   UNL     1      31.667  68.539  31.927  1.00  0.00     0.135 A 
HETATM  107  N   UNL     1      32.558  68.128  31.010  1.00  0.00    -0.255 NA
HETATM  108  C   UNL     1      31.814  67.688  29.976  1.00  0.00     0.209 A 
ENDBRANCH 103 104
BRANCH 103 109
HETATM  109  C   UNL     1      27.944  67.808  29.747  1.00  0.00     0.053 C 
BRANCH 109 110
HETATM  110  C   UNL     1      26.926  66.850  30.504  1.00  0.00     0.094 C 
BRANCH 110 111
HETATM  111  C   UNL     1      25.538  66.629  29.763  1.00  0.00     0.051 C 
BRANCH 111 112
HETATM  112  C   UNL     1      25.453  65.591  28.569  1.00  0.00     0.094 C 
BRANCH 112 113
HETATM  113  N   UNL     1      26.183  66.033  27.367  1.00  0.00    -0.345 N 
HETATM  114  C   UNL     1      25.905  67.090  26.580  1.00  0.00     0.111 A 
HETATM  115  C   UNL     1      26.794  67.082  25.526  1.00  0.00     0.135 A 
HETATM  116  N   UNL     1      27.609  66.016  25.639  1.00  0.00    -0.255 NA
HETATM  117  C   UNL     1      27.208  65.393  26.763  1.00  0.00     0.209 A 
ENDBRANCH 112 113
BRANCH 112 118
HETATM  118  C   UNL     1      23.991  65.223  28.106  1.00  0.00     0.051 C 
BRANCH 118 119
HETATM  119  C   UNL     1      23.324  64.169  29.041  1.00  0.00     0.094 C 
BRANCH 119 120
HETATM  120  C   UNL     1      22.394  64.722  30.178  1.00  0.00     0.051 C 
BRANCH 120 121
HETATM  121  C   UNL     1      20.873  64.994  29.912  1.00  0.00     0.089 C 
HETATM  122  C   UNL     1      20.062  64.670  31.179  1.00  0.00     0.033 C 
BRANCH 121 123
HETATM  123  N   UNL     1      20.537  66.342  29.483  1.00  0.00    -0.334 N 
HETATM  124  C   UNL     1      19.941  67.390  30.210  1.00  0.00     0.082 A 
HETATM  125  C   UNL     1      19.834  68.415  29.366  1.00  0.00     0.150 A 
HETATM  126  N   UNL     1      20.341  68.064  28.094  1.00  0.00    -0.254 NA
HETATM  127  C   UNL     1      20.741  66.855  28.187  1.00  0.00     0.210 A 
ENDBRANCH 121 123
ENDBRANCH 120 121
ENDBRANCH 119 120
BRANCH 119 128
HETATM  128  N   UNL     1      22.645  63.123  28.250  1.00  0.00    -0.345 N 
HETATM  129  C   UNL     1      21.911  63.279  27.125  1.00  0.00     0.209 A 
HETATM  130  N   UNL     1      21.454  62.106  26.645  1.00  0.00    -0.255 NA
HETATM  131  C   UNL     1      21.926  61.179  27.501  1.00  0.00     0.135 A 
HETATM  132  C   UNL     1      22.662  61.799  28.487  1.00  0.00     0.111 A 
ENDBRANCH 119 128
ENDBRANCH 118 119
ENDBRANCH 112 118
ENDBRANCH 111 112
ENDBRANCH 110 111
BRANCH 110 133
HETATM  133  N   UNL     1      27.583  65.646  31.078  1.00  0.00    -0.345 N 
HETATM  134  C   UNL     1      27.878  64.465  30.501  1.00  0.00     0.111 A 
HETATM  135  C   UNL     1      28.571  63.693  31.405  1.00  0.00     0.135 A 
HETATM  136  N   UNL     1      28.758  64.397  32.531  1.00  0.00    -0.255 NA
HETATM  137  C   UNL     1      28.164  65.585  32.294  1.00  0.00     0.209 A 
ENDBRANCH 110 133
ENDBRANCH 109 110
ENDBRANCH 103 109
ENDBRANCH 102 103
ENDBRANCH 101 102
ENDBRANCH   4 101
BRANCH  13 138
HETATM  138  O   UNL     1      34.145  69.752  27.877  1.00  0.00    -0.390 OA
HETATM  139  H   UNL     1      35.015  69.710  27.401  1.00  0.00     0.210 HD
ENDBRANCH  13 138
BRANCH  17 140
HETATM  140  O   UNL     1      35.568  71.981  26.487  1.00  0.00    -0.388 OA
HETATM  141  H   UNL     1      35.699  72.880  26.090  1.00  0.00     0.210 HD
ENDBRANCH  17 140
BRANCH  15 142
HETATM  142  O   UNL     1      36.575  71.571  28.898  1.00  0.00    -0.348 OA
BRANCH 142 143
HETATM  143  C   UNL     1      37.217  71.453  30.167  1.00  0.00     0.187 C 
HETATM  144  C   UNL     1      37.859  70.018  30.369  1.00  0.00     0.177 C 
HETATM  145  O   UNL     1      38.998  70.015  31.245  1.00  0.00    -0.378 OA
HETATM  146  C   UNL     1      38.920  71.016  32.232  1.00  0.00     0.202 C 
HETATM  147  C   UNL     1      39.085  72.413  31.594  1.00  0.00     0.173 C 
HETATM  148  C   UNL     1      38.360  72.487  30.217  1.00  0.00     0.180 C 
BRANCH 144 149
HETATM  149  C   UNL     1      36.839  68.973  30.855  1.00  0.00     0.215 C 
BRANCH 149 150
HETATM  150  O   UNL     1      36.019  68.352  29.906  1.00  0.00    -0.303 OA
BRANCH 150 151
HETATM  151  C   UNL     1      36.118  67.390  28.932  1.00  0.00     0.323 C 
HETATM  152  C   UNL     1      36.878  66.143  29.302  1.00  0.00     0.147 C 
HETATM  153  O   UNL     1      34.995  67.024  28.626  1.00  0.00    -0.241 OA
BRANCH 151 154
HETATM  154  O   UNL     1      36.756  67.893  27.856  1.00  0.00    -0.132 OA
HETATM  155 NA   UNL     1      36.498  69.811  27.282  1.00  0.00     0.000 Na
ENDBRANCH 151 154
ENDBRANCH 150 151
ENDBRANCH 149 150
ENDBRANCH 144 149
BRANCH 147 156
HETATM  156  O   UNL     1      40.431  72.807  31.477  1.00  0.00    -0.391 OA
HETATM  157  H   UNL     1      41.005  72.032  31.713  1.00  0.00     0.210 HD
ENDBRANCH 147 156
BRANCH 148 158
HETATM  158  O   UNL     1      39.244  72.284  29.135  1.00  0.00    -0.390 OA
HETATM  159  H   UNL     1      39.401  71.314  29.014  1.00  0.00     0.210 HD
ENDBRANCH 148 158
ENDBRANCH 142 143
ENDBRANCH  15 142
TORSDOF 60
ENDMDL
MODEL 5
REMARK VINA RESULT:      -5.6      3.236      6.480
REMARK WARNING: 32 MAX_TORS EXCEEDED!!!
REMARK  60 active torsions:
REMARK  status: ('A' for Active; 'I' for Inactive)
REMARK    1  A    between atoms: C_1  and  O_30 
REMARK    2  A    between atoms: C_3  and  O_9 
REMARK    3  A    between atoms: C_4  and  O_11 
REMARK    4  A    between atoms: O_11  and  C_106 
REMARK    5  A    between atoms: O_14  and  C_18 
REMARK    6  A    between atoms: O_19  and  C_22 
REMARK    7  A    between atoms: O_19  and  C_42 
REMARK    8  A    between atoms: O_21  and  C_24 
REMARK    9  A    between atoms: O_26  and  C_29 
REMARK   10  A    between atoms: C_28  and  C_34 
REMARK   11  A    between atoms: O_30  and  C_33 
REMARK   12  A    between atoms: C_31  and  O_53 
REMARK   13  A    between atoms: O_32  and  C_35 
REMARK   14  A    between atoms: C_34  and  O_59 
REMARK   15  A    between atoms: O_37  and  C_41 
REMARK   16  A    between atoms: C_39  and  C_45 
REMARK   17  A    between atoms: O_40  and  C_45 
REMARK   18  A    between atoms: O_40  and  C_157 
REMARK   19  A    between atoms: O_43  and  C_46 
REMARK   20  A    between atoms: O_48  and  C_52 
REMARK   21  A    between atoms: C_50  and  C_57 
REMARK   22  A    between atoms: O_51  and  C_57 
REMARK   23  A    between atoms: O_51  and  C_135 
REMARK   24  A    between atoms: O_53  and  C_56 
REMARK   25  A    between atoms: O_55  and  C_58 
REMARK   26  A    between atoms: O_55  and  C_60 
REMARK   27  A    between atoms: O_59  and  C_141 
REMARK   28  A    between atoms: C_60  and  C_61 
REMARK   29  A    between atoms: C_61  and  C_62 
REMARK   30  A    between atoms: C_61  and  N_75 
REMARK   31  A    between atoms: C_62  and  C_63 
REMARK   32  A    between atoms: C_63  and  C_64 
REMARK   33  A    between atoms: C_63  and  N_89 
REMARK   34  A    between atoms: C_64  and  C_65 
REMARK   35  A    between atoms: C_65  and  C_66 
REMARK   36  A    between atoms: C_65  and  N_79 
REMARK   37  A    between atoms: C_66  and  C_67 
REMARK   38  A    between atoms: C_67  and  C_68 
REMARK   39  A    between atoms: C_67  and  N_94 
REMARK   40  A    between atoms: C_68  and  C_69 
REMARK   41  A    between atoms: C_69  and  N_84 
REMARK   42  A    between atoms: N_101  and  C_107 
REMARK   43  A    between atoms: C_106  and  C_107 
REMARK   44  A    between atoms: C_107  and  C_114 
REMARK   45  A    between atoms: N_110  and  C_116 
REMARK   46  A    between atoms: C_112  and  C_116 
REMARK   47  A    between atoms: C_112  and  C_118 
REMARK   48  A    between atoms: N_113  and  C_123 
REMARK   49  A    between atoms: C_114  and  C_118 
REMARK   50  A    between atoms: C_116  and  C_120 
REMARK   51  A    between atoms: N_117  and  C_118 
REMARK   52  A    between atoms: C_120  and  C_125 
REMARK   53  A    between atoms: C_123  and  C_124 
REMARK   54  A    between atoms: C_124  and  C_125 
REMARK   55  A    between atoms: C_125  and  N_128 
REMARK   56  A    between atoms: C_135  and  C_136 
REMARK   57  A    between atoms: C_136  and  O_138 
REMARK   58  A    between atoms: C_141  and  C_142 
REMARK   59  A    between atoms: C_142  and  O_143 
REMARK   60  A    between atoms: C_157  and  O_158 
ROOT
HETATM    1  C   UNL     1      27.201  71.373  27.278  1.00  0.00     0.187 C 
HETATM    2  C   UNL     1      27.713  71.630  28.753  1.00  0.00     0.180 C 
HETATM    3  C   UNL     1      28.238  70.644  26.362  1.00  0.00     0.183 C 
HETATM    4  C   UNL     1      29.099  69.596  27.137  1.00  0.00     0.208 C 
HETATM    5  C   UNL     1      29.700  70.457  28.286  1.00  0.00     0.292 C 
HETATM    6  C   UNL     1      28.198  73.091  29.028  1.00  0.00     0.203 C 
HETATM    7  O   UNL     1      28.564  73.436  30.366  1.00  0.00    -0.370 OA
HETATM    8  O   UNL     1      28.665  70.668  29.227  1.00  0.00    -0.348 OA
HETATM    9  O   UNL     1      30.865  69.886  28.902  1.00  0.00    -0.348 OA
HETATM   10  O   UNL     1      33.946  70.969  30.423  1.00  0.00    -0.348 OA
HETATM   11  C   UNL     1      32.570  71.234  30.165  1.00  0.00     0.180 C 
HETATM   12  O   UNL     1      32.832  73.182  31.596  1.00  0.00    -0.304 OA
HETATM   13  C   UNL     1      33.191  69.990  28.017  1.00  0.00     0.183 C 
HETATM   14  C   UNL     1      32.057  70.709  28.782  1.00  0.00     0.187 C 
HETATM   15  C   UNL     1      34.888  71.313  29.413  1.00  0.00     0.292 C 
HETATM   16  C   UNL     1      32.283  72.729  30.402  1.00  0.00     0.215 C 
HETATM   17  C   UNL     1      34.382  70.981  27.980  1.00  0.00     0.204 C 
HETATM   18 NA   UNL     1      27.927  70.119  33.379  1.00  0.00     0.050 Na
HETATM   19  C   UNL     1      28.319  72.411  31.301  1.00  0.00     0.261 C 
HETATM   20  C   UNL     1      27.743  72.935  32.579  1.00  0.00     0.310 C 
HETATM   21  O   UNL     1      27.485  72.078  33.585  1.00  0.00    -0.185 OA
HETATM   22  O   UNL     1      27.514  74.125  32.725  1.00  0.00    -0.261 OA
HETATM   23 NA   UNL     1      30.685  71.090  34.379  1.00  0.00     0.051 Na
HETATM   24  C   UNL     1      33.346  71.755  33.395  1.00  0.00     0.146 C 
HETATM   25  C   UNL     1      32.467  72.854  32.868  1.00  0.00     0.314 C 
HETATM   26  O   UNL     1      31.202  72.402  32.941  1.00  0.00    -0.172 OA
HETATM   27  O   UNL     1      32.641  73.807  33.610  1.00  0.00    -0.242 OA
ENDROOT
BRANCH   1  28
HETATM   28  O   UNL     1      25.984  70.637  27.318  1.00  0.00    -0.348 OA
BRANCH  28  29
HETATM   29  C   UNL     1      24.859  71.404  27.778  1.00  0.00     0.292 C 
HETATM   30  O   UNL     1      24.276  70.743  28.896  1.00  0.00    -0.348 OA
HETATM   31  C   UNL     1      23.102  71.379  29.433  1.00  0.00     0.180 C 
HETATM   32  C   UNL     1      22.146  72.003  28.363  1.00  0.00     0.187 C 
HETATM   33  C   UNL     1      22.397  71.345  27.007  1.00  0.00     0.183 C 
HETATM   34  C   UNL     1      23.859  71.605  26.598  1.00  0.00     0.204 C 
BRANCH  31  35
HETATM   35  C   UNL     1      23.440  72.406  30.548  1.00  0.00     0.203 C 
BRANCH  35  36
HETATM   36  O   UNL     1      23.415  73.752  30.124  1.00  0.00    -0.370 OA
BRANCH  36  37
HETATM   37  C   UNL     1      24.719  74.243  29.987  1.00  0.00     0.262 C 
BRANCH  37  38
HETATM   38  C   UNL     1      24.697  75.720  30.206  1.00  0.00     0.321 C 
HETATM   39  O   UNL     1      23.786  76.396  29.751  1.00  0.00    -0.260 OA
BRANCH  38  40
HETATM   40  O   UNL     1      25.666  76.306  30.931  1.00  0.00    -0.147 OA
HETATM   41 NA   UNL     1      27.540  75.577  30.876  1.00  0.00     0.000 Na
ENDBRANCH  38  40
ENDBRANCH  37  38
ENDBRANCH  36  37
ENDBRANCH  35  36
ENDBRANCH  31  35
BRANCH  32  42
HETATM   42  O   UNL     1      20.787  71.749  28.699  1.00  0.00    -0.348 OA
BRANCH  42  43
HETATM   43  C   UNL     1      19.982  72.893  28.892  1.00  0.00     0.292 C 
HETATM   44  O   UNL     1      19.821  73.084  30.300  1.00  0.00    -0.351 OA
HETATM   45  C   UNL     1      18.483  73.221  30.748  1.00  0.00     0.151 C 
HETATM   46  C   UNL     1      17.726  74.280  29.913  1.00  0.00     0.068 C 
HETATM   47  C   UNL     1      17.787  73.985  28.390  1.00  0.00     0.154 C 
HETATM   48  C   UNL     1      18.655  72.751  28.058  1.00  0.00     0.205 C 
BRANCH  45  49
HETATM   49  C   UNL     1      18.500  73.652  32.231  1.00  0.00     0.200 C 
BRANCH  49  50
HETATM   50  O   UNL     1      19.768  74.118  32.655  1.00  0.00    -0.379 OA
BRANCH  50  51
HETATM   51  C   UNL     1      19.802  75.523  32.821  1.00  0.00     0.281 C 
BRANCH  51  52
HETATM   52  C   UNL     1      21.137  76.052  32.376  1.00  0.00     0.313 C 
HETATM   53  O   UNL     1      22.169  75.464  32.659  1.00  0.00    -0.260 OA
BRANCH  52  54
HETATM   54  O   UNL     1      21.201  77.190  31.660  1.00  0.00    -0.148 OA
HETATM   55 NA   UNL     1      19.662  77.769  30.501  1.00  0.00     0.000 Na
ENDBRANCH  52  54
ENDBRANCH  51  52
ENDBRANCH  50  51
ENDBRANCH  49  50
ENDBRANCH  45  49
BRANCH  47  56
HETATM   56  O   UNL     1      16.504  73.878  27.823  1.00  0.00    -0.393 OA
HETATM   57  H   UNL     1      16.615  73.724  26.847  1.00  0.00     0.210 HD
ENDBRANCH  47  56
BRANCH  48  58
HETATM   58  O   UNL     1      17.890  71.591  28.357  1.00  0.00    -0.376 OA
BRANCH  58  59
HETATM   59  C   UNL     1      18.401  70.380  27.821  1.00  0.00     0.194 C 
BRANCH  59  60
HETATM   60  C   UNL     1      17.649  69.870  26.551  1.00  0.00     0.116 C 
BRANCH  60  61
HETATM   61  C   UNL     1      18.654  69.219  25.533  1.00  0.00     0.053 C 
BRANCH  61  62
HETATM   62  C   UNL     1      18.271  67.901  24.759  1.00  0.00     0.094 C 
BRANCH  62  63
HETATM   63  C   UNL     1      18.321  68.132  23.194  1.00  0.00     0.051 C 
BRANCH  63  64
HETATM   64  C   UNL     1      17.838  69.493  22.589  1.00  0.00     0.094 C 
BRANCH  64  65
HETATM   65  C   UNL     1      18.848  70.085  21.541  1.00  0.00     0.051 C 
BRANCH  65  66
HETATM   66  C   UNL     1      19.945  69.057  21.145  1.00  0.00     0.094 C 
BRANCH  66  67
HETATM   67  C   UNL     1      20.024  68.683  19.627  1.00  0.00     0.051 C 
BRANCH  67  68
HETATM   68  C   UNL     1      20.274  67.205  19.189  1.00  0.00     0.089 C 
HETATM   69  C   UNL     1      19.181  66.304  19.791  1.00  0.00     0.033 C 
BRANCH  68  70
HETATM   70  N   UNL     1      20.328  66.972  17.755  1.00  0.00    -0.334 N 
HETATM   71  C   UNL     1      21.128  67.690  16.846  1.00  0.00     0.210 A 
HETATM   72  N   UNL     1      20.969  67.271  15.651  1.00  0.00    -0.254 NA
HETATM   73  C   UNL     1      20.032  66.216  15.718  1.00  0.00     0.150 A 
HETATM   74  C   UNL     1      19.642  66.022  16.976  1.00  0.00     0.082 A 
ENDBRANCH  68  70
ENDBRANCH  67  68
ENDBRANCH  66  67
BRANCH  66  75
HETATM   75  N   UNL     1      21.260  69.396  21.712  1.00  0.00    -0.345 N 
HETATM   76  C   UNL     1      21.583  69.622  23.003  1.00  0.00     0.209 A 
HETATM   77  N   UNL     1      22.895  69.893  23.158  1.00  0.00    -0.255 NA
HETATM   78  C   UNL     1      23.411  69.829  21.914  1.00  0.00     0.135 A 
HETATM   79  C   UNL     1      22.409  69.519  21.024  1.00  0.00     0.111 A 
ENDBRANCH  66  75
ENDBRANCH  65  66
ENDBRANCH  64  65
BRANCH  64  80
HETATM   80  N   UNL     1      16.531  69.344  21.913  1.00  0.00    -0.345 N 
HETATM   81  C   UNL     1      16.248  68.742  20.739  1.00  0.00     0.209 A 
HETATM   82  N   UNL     1      14.929  68.768  20.457  1.00  0.00    -0.255 NA
HETATM   83  C   UNL     1      14.361  69.402  21.501  1.00  0.00     0.135 A 
HETATM   84  C   UNL     1      15.339  69.749  22.401  1.00  0.00     0.111 A 
ENDBRANCH  64  80
ENDBRANCH  63  64
ENDBRANCH  62  63
BRANCH  62  85
HETATM   85  N   UNL     1      18.926  66.688  25.302  1.00  0.00    -0.345 N 
HETATM   86  C   UNL     1      19.362  65.636  24.574  1.00  0.00     0.209 A 
HETATM   87  N   UNL     1      19.841  64.634  25.336  1.00  0.00    -0.255 NA
HETATM   88  C   UNL     1      19.673  65.056  26.600  1.00  0.00     0.135 A 
HETATM   89  C   UNL     1      19.090  66.302  26.585  1.00  0.00     0.111 A 
ENDBRANCH  62  85
ENDBRANCH  61  62
ENDBRANCH  60  61
BRANCH  60  90
HETATM   90  N   UNL     1      16.737  70.883  25.965  1.00  0.00    -0.343 N 
HETATM   91  C   UNL     1      16.995  71.850  25.055  1.00  0.00     0.111 A 
HETATM   92  C   UNL     1      15.837  72.553  24.822  1.00  0.00     0.135 A 
HETATM   93  N   UNL     1      14.855  72.054  25.592  1.00  0.00    -0.255 NA
HETATM   94  C   UNL     1      15.432  71.050  26.280  1.00  0.00     0.209 A 
ENDBRANCH  60  90
ENDBRANCH  59  60
ENDBRANCH  58  59
ENDBRANCH  48  58
ENDBRANCH  42  43
ENDBRANCH  32  42
BRANCH  33  95
HETATM   95  O   UNL     1      22.071  69.973  27.044  1.00  0.00    -0.390 OA
HETATM   96  H   UNL     1      21.088  69.863  26.983  1.00  0.00     0.210 HD
ENDBRANCH  33  95
BRANCH  34  97
HETATM   97  O   UNL     1      24.197  70.889  25.436  1.00  0.00    -0.388 OA
HETATM   98  H   UNL     1      24.878  70.213  25.683  1.00  0.00     0.210 HD
ENDBRANCH  34  97
ENDBRANCH  28  29
ENDBRANCH   1  28
BRANCH   3  99
HETATM   99  O   UNL     1      27.601  70.072  25.249  1.00  0.00    -0.390 OA
HETATM  100  H   UNL     1      26.628  70.237  25.356  1.00  0.00     0.210 HD
ENDBRANCH   3  99
BRANCH   4 101
HETATM  101  O   UNL     1      28.267  68.484  27.526  1.00  0.00    -0.376 OA
BRANCH 101 102
HETATM  102  C   UNL     1      28.963  67.387  28.116  1.00  0.00     0.194 C 
BRANCH 102 103
HETATM  103  C   UNL     1      28.121  66.641  29.234  1.00  0.00     0.116 C 
BRANCH 103 104
HETATM  104  N   UNL     1      28.643  66.911  30.598  1.00  0.00    -0.343 N 
HETATM  105  C   UNL     1      29.065  66.032  31.535  1.00  0.00     0.111 A 
HETATM  106  C   UNL     1      29.450  66.735  32.653  1.00  0.00     0.135 A 
HETATM  107  N   UNL     1      29.252  68.047  32.439  1.00  0.00    -0.255 NA
HETATM  108  C   UNL     1      28.754  68.123  31.189  1.00  0.00     0.209 A 
ENDBRANCH 103 104
BRANCH 103 109
HETATM  109  C   UNL     1      26.581  66.927  29.041  1.00  0.00     0.053 C 
BRANCH 109 110
HETATM  110  C   UNL     1      25.530  65.917  28.409  1.00  0.00     0.094 C 
BRANCH 110 111
HETATM  111  C   UNL     1      24.899  64.880  29.433  1.00  0.00     0.051 C 
BRANCH 111 112
HETATM  112  C   UNL     1      25.375  64.894  30.944  1.00  0.00     0.094 C 
BRANCH 112 113
HETATM  113  N   UNL     1      25.684  63.550  31.465  1.00  0.00    -0.345 N 
HETATM  114  C   UNL     1      24.842  62.506  31.594  1.00  0.00     0.111 A 
HETATM  115  C   UNL     1      25.531  61.475  32.197  1.00  0.00     0.135 A 
HETATM  116  N   UNL     1      26.788  61.876  32.465  1.00  0.00    -0.255 NA
HETATM  117  C   UNL     1      26.849  63.144  32.015  1.00  0.00     0.209 A 
ENDBRANCH 112 113
BRANCH 112 118
HETATM  118  C   UNL     1      24.365  65.556  31.958  1.00  0.00     0.051 C 
BRANCH 118 119
HETATM  119  C   UNL     1      23.777  66.894  31.415  1.00  0.00     0.094 C 
BRANCH 119 120
HETATM  120  C   UNL     1      22.220  66.954  31.226  1.00  0.00     0.051 C 
BRANCH 120 121
HETATM  121  C   UNL     1      21.519  68.269  30.736  1.00  0.00     0.089 C 
HETATM  122  C   UNL     1      20.593  67.948  29.550  1.00  0.00     0.033 C 
BRANCH 121 123
HETATM  123  N   UNL     1      20.750  68.986  31.739  1.00  0.00    -0.334 N 
HETATM  124  C   UNL     1      20.949  70.276  32.267  1.00  0.00     0.082 A 
HETATM  125  C   UNL     1      19.983  70.465  33.165  1.00  0.00     0.150 A 
HETATM  126  N   UNL     1      19.153  69.324  33.246  1.00  0.00    -0.254 NA
HETATM  127  C   UNL     1      19.620  68.479  32.412  1.00  0.00     0.210 A 
ENDBRANCH 121 123
ENDBRANCH 120 121
ENDBRANCH 119 120
BRANCH 119 128
HETATM  128  N   UNL     1      24.269  68.040  32.205  1.00  0.00    -0.345 N 
HETATM  129  C   UNL     1      25.098  69.030  31.804  1.00  0.00     0.209 A 
HETATM  130  N   UNL     1      25.324  69.934  32.776  1.00  0.00    -0.255 NA
HETATM  131  C   UNL     1      24.603  69.496  33.826  1.00  0.00     0.135 A 
HETATM  132  C   UNL     1      23.949  68.334  33.479  1.00  0.00     0.111 A 
ENDBRANCH 119 128
ENDBRANCH 118 119
ENDBRANCH 112 118
ENDBRANCH 111 112
ENDBRANCH 110 111
BRANCH 110 133
HETATM  133  N   UNL     1      24.597  66.575  27.455  1.00  0.00    -0.345 N 
HETATM  134  C   UNL     1      24.860  67.338  26.376  1.00  0.00     0.111 A 
HETATM  135  C   UNL     1      23.673  67.643  25.751  1.00  0.00     0.135 A 
HETATM  136  N   UNL     1      22.667  67.039  26.401  1.00  0.00    -0.255 NA
HETATM  137  C   UNL     1      23.263  66.382  27.418  1.00  0.00     0.209 A 
ENDBRANCH 110 133
ENDBRANCH 109 110
ENDBRANCH 103 109
ENDBRANCH 102 103
ENDBRANCH 101 102
ENDBRANCH   4 101
BRANCH  13 138
HETATM  138  O   UNL     1      33.568  68.796  28.653  1.00  0.00    -0.390 OA
HETATM  139  H   UNL     1      33.476  68.955  29.629  1.00  0.00     0.210 HD
ENDBRANCH  13 138
BRANCH  17 140
HETATM  140  O   UNL     1      35.423  70.572  27.126  1.00  0.00    -0.388 OA
HETATM  141  H   UNL     1      35.498  71.242  26.398  1.00  0.00     0.210 HD
ENDBRANCH  17 140
BRANCH  15 142
HETATM  142  O   UNL     1      36.045  70.537  29.697  1.00  0.00    -0.348 OA
BRANCH 142 143
HETATM  143  C   UNL     1      36.632  70.782  30.974  1.00  0.00     0.187 C 
HETATM  144  C   UNL     1      37.758  69.719  31.316  1.00  0.00     0.177 C 
HETATM  145  O   UNL     1      38.778  70.223  32.194  1.00  0.00    -0.378 OA
HETATM  146  C   UNL     1      38.291  71.204  33.079  1.00  0.00     0.202 C 
HETATM  147  C   UNL     1      37.945  72.497  32.310  1.00  0.00     0.173 C 
HETATM  148  C   UNL     1      37.301  72.171  30.929  1.00  0.00     0.180 C 
BRANCH 144 149
HETATM  149  C   UNL     1      37.185  68.414  31.897  1.00  0.00     0.215 C 
BRANCH 149 150
HETATM  150  O   UNL     1      37.402  67.223  31.196  1.00  0.00    -0.303 OA
BRANCH 150 151
HETATM  151  C   UNL     1      36.820  66.503  30.183  1.00  0.00     0.323 C 
HETATM  152  C   UNL     1      37.698  66.186  29.001  1.00  0.00     0.147 C 
HETATM  153  O   UNL     1      36.451  65.427  30.628  1.00  0.00    -0.241 OA
BRANCH 151 154
HETATM  154  O   UNL     1      35.772  67.185  29.680  1.00  0.00    -0.132 OA
HETATM  155 NA   UNL     1      36.009  68.526  28.190  1.00  0.00     0.000 Na
ENDBRANCH 151 154
ENDBRANCH 150 151
ENDBRANCH 149 150
ENDBRANCH 144 149
BRANCH 147 156
HETATM  156  O   UNL     1      39.048  73.359  32.160  1.00  0.00    -0.391 OA
HETATM  157  H   UNL     1      38.781  74.107  31.565  1.00  0.00     0.210 HD
ENDBRANCH 147 156
BRANCH 148 158
HETATM  158  O   UNL     1      38.239  72.222  29.875  1.00  0.00    -0.390 OA
HETATM  159  H   UNL     1      38.533  73.158  29.739  1.00  0.00     0.210 HD
ENDBRANCH 148 158
ENDBRANCH 142 143
ENDBRANCH  15 142
TORSDOF 60
ENDMDL
MODEL 6
REMARK VINA RESULT:      -5.5      3.457      8.902
REMARK WARNING: 32 MAX_TORS EXCEEDED!!!
REMARK  60 active torsions:
REMARK  status: ('A' for Active; 'I' for Inactive)
REMARK    1  A    between atoms: C_1  and  O_30 
REMARK    2  A    between atoms: C_3  and  O_9 
REMARK    3  A    between atoms: C_4  and  O_11 
REMARK    4  A    between atoms: O_11  and  C_106 
REMARK    5  A    between atoms: O_14  and  C_18 
REMARK    6  A    between atoms: O_19  and  C_22 
REMARK    7  A    between atoms: O_19  and  C_42 
REMARK    8  A    between atoms: O_21  and  C_24 
REMARK    9  A    between atoms: O_26  and  C_29 
REMARK   10  A    between atoms: C_28  and  C_34 
REMARK   11  A    between atoms: O_30  and  C_33 
REMARK   12  A    between atoms: C_31  and  O_53 
REMARK   13  A    between atoms: O_32  and  C_35 
REMARK   14  A    between atoms: C_34  and  O_59 
REMARK   15  A    between atoms: O_37  and  C_41 
REMARK   16  A    between atoms: C_39  and  C_45 
REMARK   17  A    between atoms: O_40  and  C_45 
REMARK   18  A    between atoms: O_40  and  C_157 
REMARK   19  A    between atoms: O_43  and  C_46 
REMARK   20  A    between atoms: O_48  and  C_52 
REMARK   21  A    between atoms: C_50  and  C_57 
REMARK   22  A    between atoms: O_51  and  C_57 
REMARK   23  A    between atoms: O_51  and  C_135 
REMARK   24  A    between atoms: O_53  and  C_56 
REMARK   25  A    between atoms: O_55  and  C_58 
REMARK   26  A    between atoms: O_55  and  C_60 
REMARK   27  A    between atoms: O_59  and  C_141 
REMARK   28  A    between atoms: C_60  and  C_61 
REMARK   29  A    between atoms: C_61  and  C_62 
REMARK   30  A    between atoms: C_61  and  N_75 
REMARK   31  A    between atoms: C_62  and  C_63 
REMARK   32  A    between atoms: C_63  and  C_64 
REMARK   33  A    between atoms: C_63  and  N_89 
REMARK   34  A    between atoms: C_64  and  C_65 
REMARK   35  A    between atoms: C_65  and  C_66 
REMARK   36  A    between atoms: C_65  and  N_79 
REMARK   37  A    between atoms: C_66  and  C_67 
REMARK   38  A    between atoms: C_67  and  C_68 
REMARK   39  A    between atoms: C_67  and  N_94 
REMARK   40  A    between atoms: C_68  and  C_69 
REMARK   41  A    between atoms: C_69  and  N_84 
REMARK   42  A    between atoms: N_101  and  C_107 
REMARK   43  A    between atoms: C_106  and  C_107 
REMARK   44  A    between atoms: C_107  and  C_114 
REMARK   45  A    between atoms: N_110  and  C_116 
REMARK   46  A    between atoms: C_112  and  C_116 
REMARK   47  A    between atoms: C_112  and  C_118 
REMARK   48  A    between atoms: N_113  and  C_123 
REMARK   49  A    between atoms: C_114  and  C_118 
REMARK   50  A    between atoms: C_116  and  C_120 
REMARK   51  A    between atoms: N_117  and  C_118 
REMARK   52  A    between atoms: C_120  and  C_125 
REMARK   53  A    between atoms: C_123  and  C_124 
REMARK   54  A    between atoms: C_124  and  C_125 
REMARK   55  A    between atoms: C_125  and  N_128 
REMARK   56  A    between atoms: C_135  and  C_136 
REMARK   57  A    between atoms: C_136  and  O_138 
REMARK   58  A    between atoms: C_141  and  C_142 
REMARK   59  A    between atoms: C_142  and  O_143 
REMARK   60  A    between atoms: C_157  and  O_158 
ROOT
HETATM    1  C   UNL     1      17.796  68.533  28.535  1.00  0.00     0.187 C 
HETATM    2  C   UNL     1      19.159  67.743  28.681  1.00  0.00     0.180 C 
HETATM    3  C   UNL     1      17.970  70.029  28.113  1.00  0.00     0.183 C 
HETATM    4  C   UNL     1      19.166  70.247  27.132  1.00  0.00     0.208 C 
HETATM    5  C   UNL     1      20.352  69.626  27.926  1.00  0.00     0.292 C 
HETATM    6  C   UNL     1      19.648  67.556  30.155  1.00  0.00     0.203 C 
HETATM    7  O   UNL     1      20.807  66.751  30.381  1.00  0.00    -0.370 OA
HETATM    8  O   UNL     1      20.216  68.221  27.839  1.00  0.00    -0.348 OA
HETATM    9  O   UNL     1      21.649  70.059  27.483  1.00  0.00    -0.348 OA
HETATM   10  O   UNL     1      24.906  70.745  28.861  1.00  0.00    -0.348 OA
HETATM   11  C   UNL     1      23.707  69.977  28.923  1.00  0.00     0.180 C 
HETATM   12  O   UNL     1      24.793  68.704  30.686  1.00  0.00    -0.304 OA
HETATM   13  C   UNL     1      22.763  72.203  28.088  1.00  0.00     0.183 C 
HETATM   14  C   UNL     1      22.416  70.755  28.502  1.00  0.00     0.187 C 
HETATM   15  C   UNL     1      24.907  72.024  29.484  1.00  0.00     0.292 C 
HETATM   16  C   UNL     1      23.600  69.306  30.306  1.00  0.00     0.215 C 
HETATM   17  C   UNL     1      23.580  72.804  29.260  1.00  0.00     0.204 C 
HETATM   18 NA   UNL     1      22.492  64.834  26.644  1.00  0.00     0.050 Na
HETATM   19  C   UNL     1      21.295  66.124  29.217  1.00  0.00     0.261 C 
HETATM   20  C   UNL     1      21.713  64.710  29.468  1.00  0.00     0.310 C 
HETATM   21  O   UNL     1      22.233  63.987  28.458  1.00  0.00    -0.185 OA
HETATM   22  O   UNL     1      21.598  64.207  30.574  1.00  0.00    -0.261 OA
HETATM   23 NA   UNL     1      25.165  65.710  27.924  1.00  0.00     0.051 Na
HETATM   24  C   UNL     1      26.438  68.029  29.145  1.00  0.00     0.146 C 
HETATM   25  C   UNL     1      25.394  67.608  30.141  1.00  0.00     0.314 C 
HETATM   26  O   UNL     1      24.527  66.821  29.478  1.00  0.00    -0.172 OA
HETATM   27  O   UNL     1      25.987  66.985  31.006  1.00  0.00    -0.242 OA
ENDROOT
BRANCH   1  28
HETATM   28  O   UNL     1      16.953  67.861  27.606  1.00  0.00    -0.348 OA
BRANCH  28  29
HETATM   29  C   UNL     1      17.364  66.513  27.323  1.00  0.00     0.292 C 
HETATM   30  O   UNL     1      17.760  66.429  25.959  1.00  0.00    -0.348 OA
HETATM   31  C   UNL     1      18.153  65.115  25.520  1.00  0.00     0.180 C 
HETATM   32  C   UNL     1      17.306  63.943  26.118  1.00  0.00     0.187 C 
HETATM   33  C   UNL     1      15.957  64.478  26.593  1.00  0.00     0.183 C 
HETATM   34  C   UNL     1      16.203  65.536  27.684  1.00  0.00     0.204 C 
BRANCH  31  35
HETATM   35  C   UNL     1      19.674  64.858  25.705  1.00  0.00     0.203 C 
BRANCH  35  36
HETATM   36  O   UNL     1      20.434  66.023  25.946  1.00  0.00    -0.370 OA
BRANCH  36  37
HETATM   37  C   UNL     1      20.795  66.627  24.736  1.00  0.00     0.262 C 
BRANCH  37  38
HETATM   38  C   UNL     1      21.913  67.583  24.997  1.00  0.00     0.321 C 
HETATM   39  O   UNL     1      22.773  67.312  25.821  1.00  0.00    -0.260 OA
BRANCH  38  40
HETATM   40  O   UNL     1      21.989  68.732  24.304  1.00  0.00    -0.147 OA
HETATM   41 NA   UNL     1      22.141  70.484  25.281  1.00  0.00     0.000 Na
ENDBRANCH  38  40
ENDBRANCH  37  38
ENDBRANCH  36  37
ENDBRANCH  35  36
ENDBRANCH  31  35
BRANCH  32  42
HETATM   42  O   UNL     1      17.035  62.965  25.121  1.00  0.00    -0.348 OA
BRANCH  42  43
HETATM   43  C   UNL     1      16.934  61.634  25.583  1.00  0.00     0.292 C 
HETATM   44  O   UNL     1      17.724  61.521  26.770  1.00  0.00    -0.351 OA
HETATM   45  C   UNL     1      18.664  60.460  26.777  1.00  0.00     0.151 C 
HETATM   46  C   UNL     1      17.995  59.124  26.377  1.00  0.00     0.068 C 
HETATM   47  C   UNL     1      17.257  59.218  25.014  1.00  0.00     0.154 C 
HETATM   48  C   UNL     1      17.295  60.642  24.416  1.00  0.00     0.205 C 
BRANCH  45  49
HETATM   49  C   UNL     1      19.254  60.334  28.198  1.00  0.00     0.200 C 
BRANCH  49  50
HETATM   50  O   UNL     1      20.358  61.194  28.415  1.00  0.00    -0.379 OA
BRANCH  50  51
HETATM   51  C   UNL     1      21.598  60.554  28.182  1.00  0.00     0.281 C 
BRANCH  51  52
HETATM   52  C   UNL     1      22.199  60.126  29.491  1.00  0.00     0.313 C 
HETATM   53  O   UNL     1      22.402  58.945  29.731  1.00  0.00    -0.260 OA
BRANCH  52  54
HETATM   54  O   UNL     1      22.517  61.050  30.417  1.00  0.00    -0.148 OA
HETATM   55 NA   UNL     1      23.679  62.625  29.947  1.00  0.00     0.000 Na
ENDBRANCH  52  54
ENDBRANCH  51  52
ENDBRANCH  50  51
ENDBRANCH  49  50
ENDBRANCH  45  49
BRANCH  47  56
HETATM   56  O   UNL     1      17.727  58.262  24.095  1.00  0.00    -0.393 OA
HETATM   57  H   UNL     1      17.073  58.213  23.348  1.00  0.00     0.210 HD
ENDBRANCH  47  56
BRANCH  48  58
HETATM   58  O   UNL     1      18.584  60.839  23.849  1.00  0.00    -0.376 OA
BRANCH  58  59
HETATM   59  C   UNL     1      18.587  61.404  22.547  1.00  0.00     0.194 C 
BRANCH  59  60
HETATM   60  C   UNL     1      17.701  60.642  21.512  1.00  0.00     0.116 C 
BRANCH  60  61
HETATM   61  C   UNL     1      18.571  60.119  20.312  1.00  0.00     0.053 C 
BRANCH  61  62
HETATM   62  C   UNL     1      17.886  59.596  18.992  1.00  0.00     0.094 C 
BRANCH  62  63
HETATM   63  C   UNL     1      17.843  60.732  17.891  1.00  0.00     0.051 C 
BRANCH  63  64
HETATM   64  C   UNL     1      16.759  60.685  16.761  1.00  0.00     0.094 C 
BRANCH  64  65
HETATM   65  C   UNL     1      15.314  60.995  17.294  1.00  0.00     0.051 C 
BRANCH  65  66
HETATM   66  C   UNL     1      14.313  59.854  16.960  1.00  0.00     0.094 C 
BRANCH  66  67
HETATM   67  C   UNL     1      14.727  58.417  17.426  1.00  0.00     0.051 C 
BRANCH  67  68
HETATM   68  C   UNL     1      14.285  57.163  16.607  1.00  0.00     0.089 C 
HETATM   69  C   UNL     1      14.613  57.384  15.120  1.00  0.00     0.033 C 
BRANCH  68  70
HETATM   70  N   UNL     1      14.866  55.898  17.025  1.00  0.00    -0.334 N 
HETATM   71  C   UNL     1      15.668  55.068  16.219  1.00  0.00     0.210 A 
HETATM   72  N   UNL     1      16.036  54.019  16.847  1.00  0.00    -0.254 NA
HETATM   73  C   UNL     1      15.481  54.114  18.143  1.00  0.00     0.150 A 
HETATM   74  C   UNL     1      14.780  55.240  18.265  1.00  0.00     0.082 A 
ENDBRANCH  68  70
ENDBRANCH  67  68
ENDBRANCH  66  67
BRANCH  66  75
HETATM   75  N   UNL     1      12.932  60.193  17.336  1.00  0.00    -0.345 N 
HETATM   76  C   UNL     1      12.264  59.861  18.461  1.00  0.00     0.209 A 
HETATM   77  N   UNL     1      11.011  60.361  18.473  1.00  0.00    -0.255 NA
HETATM   78  C   UNL     1      10.895  61.034  17.311  1.00  0.00     0.135 A 
HETATM   79  C   UNL     1      12.076  60.936  16.612  1.00  0.00     0.111 A 
ENDBRANCH  66  75
ENDBRANCH  65  66
ENDBRANCH  64  65
BRANCH  64  80
HETATM   80  N   UNL     1      17.059  61.660  15.692  1.00  0.00    -0.345 N 
HETATM   81  C   UNL     1      16.958  61.508  14.355  1.00  0.00     0.209 A 
HETATM   82  N   UNL     1      17.283  62.634  13.687  1.00  0.00    -0.255 NA
HETATM   83  C   UNL     1      17.590  63.531  14.644  1.00  0.00     0.135 A 
HETATM   84  C   UNL     1      17.445  62.941  15.875  1.00  0.00     0.111 A 
ENDBRANCH  64  80
ENDBRANCH  63  64
ENDBRANCH  62  63
BRANCH  62  85
HETATM   85  N   UNL     1      18.351  58.250  18.581  1.00  0.00    -0.345 N 
HETATM   86  C   UNL     1      19.127  57.978  17.510  1.00  0.00     0.209 A 
HETATM   87  N   UNL     1      19.325  56.659  17.327  1.00  0.00    -0.255 NA
HETATM   88  C   UNL     1      18.619  56.069  18.306  1.00  0.00     0.135 A 
HETATM   89  C   UNL     1      18.000  57.037  19.061  1.00  0.00     0.111 A 
ENDBRANCH  62  85
ENDBRANCH  61  62
ENDBRANCH  60  61
BRANCH  60  90
HETATM   90  N   UNL     1      16.484  61.394  21.118  1.00  0.00    -0.343 N 
HETATM   91  C   UNL     1      16.355  62.688  20.743  1.00  0.00     0.111 A 
HETATM   92  C   UNL     1      15.029  62.937  20.479  1.00  0.00     0.135 A 
HETATM   93  N   UNL     1      14.316  61.820  20.703  1.00  0.00    -0.255 NA
HETATM   94  C   UNL     1      15.223  60.905  21.097  1.00  0.00     0.209 A 
ENDBRANCH  60  90
ENDBRANCH  59  60
ENDBRANCH  58  59
ENDBRANCH  48  58
ENDBRANCH  42  43
ENDBRANCH  32  42
BRANCH  33  95
HETATM   95  O   UNL     1      15.199  64.970  25.509  1.00  0.00    -0.390 OA
HETATM   96  H   UNL     1      14.947  65.913  25.680  1.00  0.00     0.210 HD
ENDBRANCH  33  95
BRANCH  34  97
HETATM   97  O   UNL     1      15.008  66.181  28.047  1.00  0.00    -0.388 OA
HETATM   98  H   UNL     1      14.458  66.284  27.230  1.00  0.00     0.210 HD
ENDBRANCH  34  97
ENDBRANCH  28  29
ENDBRANCH   1  28
BRANCH   3  99
HETATM   99  O   UNL     1      16.771  70.541  27.591  1.00  0.00    -0.390 OA
HETATM  100  H   UNL     1      16.134  69.781  27.532  1.00  0.00     0.210 HD
ENDBRANCH   3  99
BRANCH   4 101
HETATM  101  O   UNL     1      18.856  69.650  25.857  1.00  0.00    -0.376 OA
BRANCH 101 102
HETATM  102  C   UNL     1      18.771  70.567  24.767  1.00  0.00     0.194 C 
BRANCH 102 103
HETATM  103  C   UNL     1      17.442  70.405  23.916  1.00  0.00     0.116 C 
BRANCH 103 104
HETATM  104  N   UNL     1      16.448  71.463  24.228  1.00  0.00    -0.343 N 
HETATM  105  C   UNL     1      16.609  72.593  24.952  1.00  0.00     0.111 A 
HETATM  106  C   UNL     1      15.410  73.267  24.985  1.00  0.00     0.135 A 
HETATM  107  N   UNL     1      14.489  72.561  24.308  1.00  0.00    -0.255 NA
HETATM  108  C   UNL     1      15.144  71.469  23.868  1.00  0.00     0.209 A 
ENDBRANCH 103 104
BRANCH 103 109
HETATM  109  C   UNL     1      17.789  70.245  22.385  1.00  0.00     0.053 C 
BRANCH 109 110
HETATM  110  C   UNL     1      18.011  68.865  21.631  1.00  0.00     0.094 C 
BRANCH 110 111
HETATM  111  C   UNL     1      19.501  68.313  21.669  1.00  0.00     0.051 C 
BRANCH 111 112
HETATM  112  C   UNL     1      20.128  67.681  20.359  1.00  0.00     0.094 C 
BRANCH 112 113
HETATM  113  N   UNL     1      21.538  68.061  20.153  1.00  0.00    -0.345 N 
HETATM  114  C   UNL     1      22.457  67.427  19.400  1.00  0.00     0.111 A 
HETATM  115  C   UNL     1      23.661  68.080  19.559  1.00  0.00     0.135 A 
HETATM  116  N   UNL     1      23.503  69.102  20.421  1.00  0.00    -0.255 NA
HETATM  117  C   UNL     1      22.204  69.060  20.772  1.00  0.00     0.209 A 
ENDBRANCH 112 113
BRANCH 112 118
HETATM  118  C   UNL     1      19.365  68.018  19.021  1.00  0.00     0.051 C 
BRANCH 118 119
HETATM  119  C   UNL     1      19.142  66.755  18.135  1.00  0.00     0.094 C 
BRANCH 119 120
HETATM  120  C   UNL     1      17.658  66.280  17.944  1.00  0.00     0.051 C 
BRANCH 120 121
HETATM  121  C   UNL     1      16.571  67.251  17.366  1.00  0.00     0.089 C 
HETATM  122  C   UNL     1      16.582  67.180  15.828  1.00  0.00     0.033 C 
BRANCH 121 123
HETATM  123  N   UNL     1      15.211  67.024  17.826  1.00  0.00    -0.334 N 
HETATM  124  C   UNL     1      14.579  65.821  18.192  1.00  0.00     0.082 A 
HETATM  125  C   UNL     1      13.330  66.142  18.527  1.00  0.00     0.150 A 
HETATM  126  N   UNL     1      13.122  67.533  18.383  1.00  0.00    -0.254 NA
HETATM  127  C   UNL     1      14.227  68.022  17.973  1.00  0.00     0.210 A 
ENDBRANCH 121 123
ENDBRANCH 120 121
ENDBRANCH 119 120
BRANCH 119 128
HETATM  128  N   UNL     1      19.833  66.897  16.839  1.00  0.00    -0.345 N 
HETATM  129  C   UNL     1      20.159  65.921  15.961  1.00  0.00     0.209 A 
HETATM  130  N   UNL     1      20.766  66.405  14.860  1.00  0.00    -0.255 NA
HETATM  131  C   UNL     1      20.818  67.737  15.054  1.00  0.00     0.135 A 
HETATM  132  C   UNL     1      20.242  68.045  16.267  1.00  0.00     0.111 A 
ENDBRANCH 119 128
ENDBRANCH 118 119
ENDBRANCH 112 118
ENDBRANCH 111 112
ENDBRANCH 110 111
BRANCH 110 133
HETATM  133  N   UNL     1      16.922  67.884  21.886  1.00  0.00    -0.345 N 
HETATM  134  C   UNL     1      15.679  67.822  21.372  1.00  0.00     0.111 A 
HETATM  135  C   UNL     1      15.066  66.679  21.836  1.00  0.00     0.135 A 
HETATM  136  N   UNL     1      15.932  65.998  22.601  1.00  0.00    -0.255 NA
HETATM  137  C   UNL     1      17.056  66.745  22.595  1.00  0.00     0.209 A 
ENDBRANCH 110 133
ENDBRANCH 109 110
ENDBRANCH 103 109
ENDBRANCH 102 103
ENDBRANCH 101 102
ENDBRANCH   4 101
BRANCH  13 138
HETATM  138  O   UNL     1      23.514  72.236  26.902  1.00  0.00    -0.390 OA
HETATM  139  H   UNL     1      22.994  71.730  26.225  1.00  0.00     0.210 HD
ENDBRANCH  13 138
BRANCH  17 140
HETATM  140  O   UNL     1      23.786  74.191  29.145  1.00  0.00    -0.388 OA
HETATM  141  H   UNL     1      24.318  74.485  29.928  1.00  0.00     0.210 HD
ENDBRANCH  17 140
BRANCH  15 142
HETATM  142  O   UNL     1      25.980  72.736  28.883  1.00  0.00    -0.348 OA
BRANCH 142 143
HETATM  143  C   UNL     1      27.272  72.177  29.110  1.00  0.00     0.187 C 
HETATM  144  C   UNL     1      28.293  72.571  27.963  1.00  0.00     0.177 C 
HETATM  145  O   UNL     1      29.662  72.615  28.400  1.00  0.00    -0.378 OA
HETATM  146  C   UNL     1      29.923  71.705  29.442  1.00  0.00     0.202 C 
HETATM  147  C   UNL     1      29.219  72.158  30.740  1.00  0.00     0.173 C 
HETATM  148  C   UNL     1      27.813  72.753  30.434  1.00  0.00     0.180 C 
BRANCH 144 149
HETATM  149  C   UNL     1      28.181  71.660  26.728  1.00  0.00     0.215 C 
BRANCH 149 150
HETATM  150  O   UNL     1      28.358  70.283  26.898  1.00  0.00    -0.303 OA
BRANCH 150 151
HETATM  151  C   UNL     1      29.186  69.287  26.443  1.00  0.00     0.323 C 
HETATM  152  C   UNL     1      28.509  68.076  25.856  1.00  0.00     0.147 C 
HETATM  153  O   UNL     1      29.896  69.740  25.559  1.00  0.00    -0.241 OA
BRANCH 151 154
HETATM  154  O   UNL     1      29.941  68.820  27.457  1.00  0.00    -0.132 OA
HETATM  155 NA   UNL     1      31.844  69.437  27.722  1.00  0.00     0.000 Na
ENDBRANCH 151 154
ENDBRANCH 150 151
ENDBRANCH 149 150
ENDBRANCH 144 149
BRANCH 147 156
HETATM  156  O   UNL     1      29.993  73.057  31.498  1.00  0.00    -0.391 OA
HETATM  157  H   UNL     1      29.864  73.969  31.127  1.00  0.00     0.210 HD
ENDBRANCH 147 156
BRANCH 148 158
HETATM  158  O   UNL     1      27.829  74.164  30.376  1.00  0.00    -0.390 OA
HETATM  159  H   UNL     1      28.759  74.479  30.247  1.00  0.00     0.210 HD
ENDBRANCH 148 158
ENDBRANCH 142 143
ENDBRANCH  15 142
TORSDOF 60
ENDMDL
MODEL 7
REMARK VINA RESULT:      -5.5     19.506     26.292
REMARK WARNING: 32 MAX_TORS EXCEEDED!!!
REMARK  60 active torsions:
REMARK  status: ('A' for Active; 'I' for Inactive)
REMARK    1  A    between atoms: C_1  and  O_30 
REMARK    2  A    between atoms: C_3  and  O_9 
REMARK    3  A    between atoms: C_4  and  O_11 
REMARK    4  A    between atoms: O_11  and  C_106 
REMARK    5  A    between atoms: O_14  and  C_18 
REMARK    6  A    between atoms: O_19  and  C_22 
REMARK    7  A    between atoms: O_19  and  C_42 
REMARK    8  A    between atoms: O_21  and  C_24 
REMARK    9  A    between atoms: O_26  and  C_29 
REMARK   10  A    between atoms: C_28  and  C_34 
REMARK   11  A    between atoms: O_30  and  C_33 
REMARK   12  A    between atoms: C_31  and  O_53 
REMARK   13  A    between atoms: O_32  and  C_35 
REMARK   14  A    between atoms: C_34  and  O_59 
REMARK   15  A    between atoms: O_37  and  C_41 
REMARK   16  A    between atoms: C_39  and  C_45 
REMARK   17  A    between atoms: O_40  and  C_45 
REMARK   18  A    between atoms: O_40  and  C_157 
REMARK   19  A    between atoms: O_43  and  C_46 
REMARK   20  A    between atoms: O_48  and  C_52 
REMARK   21  A    between atoms: C_50  and  C_57 
REMARK   22  A    between atoms: O_51  and  C_57 
REMARK   23  A    between atoms: O_51  and  C_135 
REMARK   24  A    between atoms: O_53  and  C_56 
REMARK   25  A    between atoms: O_55  and  C_58 
REMARK   26  A    between atoms: O_55  and  C_60 
REMARK   27  A    between atoms: O_59  and  C_141 
REMARK   28  A    between atoms: C_60  and  C_61 
REMARK   29  A    between atoms: C_61  and  C_62 
REMARK   30  A    between atoms: C_61  and  N_75 
REMARK   31  A    between atoms: C_62  and  C_63 
REMARK   32  A    between atoms: C_63  and  C_64 
REMARK   33  A    between atoms: C_63  and  N_89 
REMARK   34  A    between atoms: C_64  and  C_65 
REMARK   35  A    between atoms: C_65  and  C_66 
REMARK   36  A    between atoms: C_65  and  N_79 
REMARK   37  A    between atoms: C_66  and  C_67 
REMARK   38  A    between atoms: C_67  and  C_68 
REMARK   39  A    between atoms: C_67  and  N_94 
REMARK   40  A    between atoms: C_68  and  C_69 
REMARK   41  A    between atoms: C_69  and  N_84 
REMARK   42  A    between atoms: N_101  and  C_107 
REMARK   43  A    between atoms: C_106  and  C_107 
REMARK   44  A    between atoms: C_107  and  C_114 
REMARK   45  A    between atoms: N_110  and  C_116 
REMARK   46  A    between atoms: C_112  and  C_116 
REMARK   47  A    between atoms: C_112  and  C_118 
REMARK   48  A    between atoms: N_113  and  C_123 
REMARK   49  A    between atoms: C_114  and  C_118 
REMARK   50  A    between atoms: C_116  and  C_120 
REMARK   51  A    between atoms: N_117  and  C_118 
REMARK   52  A    between atoms: C_120  and  C_125 
REMARK   53  A    between atoms: C_123  and  C_124 
REMARK   54  A    between atoms: C_124  and  C_125 
REMARK   55  A    between atoms: C_125  and  N_128 
REMARK   56  A    between atoms: C_135  and  C_136 
REMARK   57  A    between atoms: C_136  and  O_138 
REMARK   58  A    between atoms: C_141  and  C_142 
REMARK   59  A    between atoms: C_142  and  O_143 
REMARK   60  A    between atoms: C_157  and  O_158 
ROOT
HETATM    1  C   UNL     1      41.616  83.186  20.137  1.00  0.00     0.187 C 
HETATM    2  C   UNL     1      42.538  81.906  20.019  1.00  0.00     0.180 C 
HETATM    3  C   UNL     1      40.958  83.369  21.544  1.00  0.00     0.183 C 
HETATM    4  C   UNL     1      41.885  82.901  22.712  1.00  0.00     0.208 C 
HETATM    5  C   UNL     1      42.207  81.434  22.301  1.00  0.00     0.292 C 
HETATM    6  C   UNL     1      41.876  80.693  19.286  1.00  0.00     0.203 C 
HETATM    7  O   UNL     1      42.683  79.540  19.032  1.00  0.00    -0.370 OA
HETATM    8  O   UNL     1      43.151  81.500  21.249  1.00  0.00    -0.348 OA
HETATM    9  O   UNL     1      42.676  80.610  23.380  1.00  0.00    -0.348 OA
HETATM   10  O   UNL     1      42.494  77.177  24.458  1.00  0.00    -0.348 OA
HETATM   11  C   UNL     1      42.532  78.100  23.373  1.00  0.00     0.180 C 
HETATM   12  O   UNL     1      42.620  76.155  21.918  1.00  0.00    -0.304 OA
HETATM   13  C   UNL     1      41.255  79.496  25.095  1.00  0.00     0.183 C 
HETATM   14  C   UNL     1      41.823  79.466  23.659  1.00  0.00     0.187 C 
HETATM   15  C   UNL     1      41.235  76.931  25.075  1.00  0.00     0.292 C 
HETATM   16  C   UNL     1      42.037  77.405  22.091  1.00  0.00     0.215 C 
HETATM   17  C   UNL     1      40.384  78.222  25.242  1.00  0.00     0.204 C 
HETATM   18 NA   UNL     1      47.008  79.989  20.286  1.00  0.00     0.050 Na
HETATM   19  C   UNL     1      44.036  79.709  19.386  1.00  0.00     0.261 C 
HETATM   20  C   UNL     1      44.964  79.125  18.368  1.00  0.00     0.310 C 
HETATM   21  O   UNL     1      46.293  79.179  18.581  1.00  0.00    -0.185 OA
HETATM   22  O   UNL     1      44.536  78.595  17.356  1.00  0.00    -0.261 OA
HETATM   23 NA   UNL     1      46.552  77.114  21.323  1.00  0.00     0.051 Na
HETATM   24  C   UNL     1      44.669  75.547  22.903  1.00  0.00     0.146 C 
HETATM   25  C   UNL     1      43.922  75.865  21.637  1.00  0.00     0.314 C 
HETATM   26  O   UNL     1      44.567  76.896  21.060  1.00  0.00    -0.172 OA
HETATM   27  O   UNL     1      43.986  74.860  20.949  1.00  0.00    -0.242 OA
ENDROOT
BRANCH   1  28
HETATM   28  O   UNL     1      42.366  84.347  19.797  1.00  0.00    -0.348 OA
BRANCH  28  29
HETATM   29  C   UNL     1      42.411  84.613  18.385  1.00  0.00     0.292 C 
HETATM   30  O   UNL     1      41.544  83.703  17.717  1.00  0.00    -0.348 OA
HETATM   31  C   UNL     1      41.525  83.824  16.283  1.00  0.00     0.180 C 
HETATM   32  C   UNL     1      42.913  84.134  15.632  1.00  0.00     0.187 C 
HETATM   33  C   UNL     1      44.030  83.717  16.587  1.00  0.00     0.183 C 
HETATM   34  C   UNL     1      43.887  84.523  17.892  1.00  0.00     0.204 C 
BRANCH  31  35
HETATM   35  C   UNL     1      40.439  84.817  15.785  1.00  0.00     0.203 C 
BRANCH  35  36
HETATM   36  O   UNL     1      39.134  84.521  16.233  1.00  0.00    -0.370 OA
BRANCH  36  37
HETATM   37  C   UNL     1      38.669  85.535  17.080  1.00  0.00     0.262 C 
BRANCH  37  38
HETATM   38  C   UNL     1      38.364  84.937  18.414  1.00  0.00     0.321 C 
HETATM   39  O   UNL     1      38.991  85.288  19.403  1.00  0.00    -0.260 OA
BRANCH  38  40
HETATM   40  O   UNL     1      37.378  84.031  18.535  1.00  0.00    -0.147 OA
HETATM   41 NA   UNL     1      37.354  82.779  20.109  1.00  0.00     0.000 Na
ENDBRANCH  38  40
ENDBRANCH  37  38
ENDBRANCH  36  37
ENDBRANCH  35  36
ENDBRANCH  31  35
BRANCH  32  42
HETATM   42  O   UNL     1      43.086  83.377  14.440  1.00  0.00    -0.348 OA
BRANCH  42  43
HETATM   43  C   UNL     1      43.221  84.129  13.253  1.00  0.00     0.292 C 
HETATM   44  O   UNL     1      41.911  84.368  12.733  1.00  0.00    -0.351 OA
HETATM   45  C   UNL     1      41.721  84.013  11.373  1.00  0.00     0.151 C 
HETATM   46  C   UNL     1      42.833  84.615  10.483  1.00  0.00     0.068 C 
HETATM   47  C   UNL     1      44.255  84.231  10.976  1.00  0.00     0.154 C 
HETATM   48  C   UNL     1      44.229  83.408  12.283  1.00  0.00     0.205 C 
BRANCH  45  49
HETATM   49  C   UNL     1      40.347  84.547  10.912  1.00  0.00     0.200 C 
BRANCH  49  50
HETATM   50  O   UNL     1      40.034  84.185   9.579  1.00  0.00    -0.379 OA
BRANCH  50  51
HETATM   51  C   UNL     1      39.722  85.303   8.771  1.00  0.00     0.281 C 
BRANCH  51  52
HETATM   52  C   UNL     1      40.446  85.195   7.458  1.00  0.00     0.313 C 
HETATM   53  O   UNL     1      40.189  85.955   6.537  1.00  0.00    -0.260 OA
BRANCH  52  54
HETATM   54  O   UNL     1      41.389  84.249   7.289  1.00  0.00    -0.148 OA
HETATM   55 NA   UNL     1      41.459  82.635   8.490  1.00  0.00     0.000 Na
ENDBRANCH  52  54
ENDBRANCH  51  52
ENDBRANCH  50  51
ENDBRANCH  49  50
ENDBRANCH  45  49
BRANCH  47  56
HETATM   56  O   UNL     1      45.001  83.583   9.975  1.00  0.00    -0.393 OA
HETATM   57  H   UNL     1      45.693  83.028  10.424  1.00  0.00     0.210 HD
ENDBRANCH  47  56
BRANCH  48  58
HETATM   58  O   UNL     1      43.874  82.074  11.946  1.00  0.00    -0.376 OA
BRANCH  58  59
HETATM   59  C   UNL     1      44.794  81.081  12.375  1.00  0.00     0.194 C 
BRANCH  59  60
HETATM   60  C   UNL     1      44.847  79.816  11.462  1.00  0.00     0.116 C 
BRANCH  60  61
HETATM   61  C   UNL     1      46.334  79.396  11.177  1.00  0.00     0.053 C 
BRANCH  61  62
HETATM   62  C   UNL     1      46.829  77.932  11.487  1.00  0.00     0.094 C 
BRANCH  62  63
HETATM   63  C   UNL     1      47.313  77.209  10.166  1.00  0.00     0.051 C 
BRANCH  63  64
HETATM   64  C   UNL     1      47.128  75.662  10.008  1.00  0.00     0.094 C 
BRANCH  64  65
HETATM   65  C   UNL     1      46.013  75.085  10.953  1.00  0.00     0.051 C 
BRANCH  65  66
HETATM   66  C   UNL     1      46.548  73.930  11.846  1.00  0.00     0.094 C 
BRANCH  66  67
HETATM   67  C   UNL     1      46.668  74.242  13.376  1.00  0.00     0.051 C 
BRANCH  67  68
HETATM   68  C   UNL     1      47.230  73.167  14.360  1.00  0.00     0.089 C 
HETATM   69  C   UNL     1      48.533  73.686  14.991  1.00  0.00     0.033 C 
BRANCH  68  70
HETATM   70  N   UNL     1      46.332  72.755  15.426  1.00  0.00    -0.334 N 
HETATM   71  C   UNL     1      45.799  73.608  16.413  1.00  0.00     0.210 A 
HETATM   72  N   UNL     1      45.044  72.972  17.222  1.00  0.00    -0.254 NA
HETATM   73  C   UNL     1      45.036  71.627  16.789  1.00  0.00     0.150 A 
HETATM   74  C   UNL     1      45.801  71.483  15.709  1.00  0.00     0.082 A 
ENDBRANCH  68  70
ENDBRANCH  67  68
ENDBRANCH  66  67
BRANCH  66  75
HETATM   75  N   UNL     1      45.863  72.655  11.582  1.00  0.00    -0.345 N 
HETATM   76  C   UNL     1      46.379  71.518  11.069  1.00  0.00     0.209 A 
HETATM   77  N   UNL     1      45.456  70.538  10.980  1.00  0.00    -0.255 NA
HETATM   78  C   UNL     1      44.322  71.084  11.461  1.00  0.00     0.135 A 
HETATM   79  C   UNL     1      44.570  72.385  11.836  1.00  0.00     0.111 A 
ENDBRANCH  66  75
ENDBRANCH  65  66
ENDBRANCH  64  65
BRANCH  64  80
HETATM   80  N   UNL     1      46.765  75.305   8.620  1.00  0.00    -0.345 N 
HETATM   81  C   UNL     1      47.204  75.845   7.464  1.00  0.00     0.209 A 
HETATM   82  N   UNL     1      46.678  75.233   6.383  1.00  0.00    -0.255 NA
HETATM   83  C   UNL     1      45.886  74.264   6.881  1.00  0.00     0.135 A 
HETATM   84  C   UNL     1      45.943  74.299   8.253  1.00  0.00     0.111 A 
ENDBRANCH  64  80
ENDBRANCH  63  64
ENDBRANCH  62  63
BRANCH  62  85
HETATM   85  N   UNL     1      47.700  77.846  12.683  1.00  0.00    -0.345 N 
HETATM   86  C   UNL     1      47.503  78.499  13.849  1.00  0.00     0.209 A 
HETATM   87  N   UNL     1      48.498  78.302  14.735  1.00  0.00    -0.255 NA
HETATM   88  C   UNL     1      49.377  77.516  14.092  1.00  0.00     0.135 A 
HETATM   89  C   UNL     1      48.906  77.255  12.826  1.00  0.00     0.111 A 
ENDBRANCH  62  85
ENDBRANCH  61  62
ENDBRANCH  60  61
BRANCH  60  90
HETATM   90  N   UNL     1      43.989  79.928  10.256  1.00  0.00    -0.343 N 
HETATM   91  C   UNL     1      42.714  79.516  10.065  1.00  0.00     0.111 A 
HETATM   92  C   UNL     1      42.341  79.830   8.780  1.00  0.00     0.135 A 
HETATM   93  N   UNL     1      43.373  80.418   8.150  1.00  0.00    -0.255 NA
HETATM   94  C   UNL     1      44.360  80.455   9.067  1.00  0.00     0.209 A 
ENDBRANCH  60  90
ENDBRANCH  59  60
ENDBRANCH  58  59
ENDBRANCH  48  58
ENDBRANCH  42  43
ENDBRANCH  32  42
BRANCH  33  95
HETATM   95  O   UNL     1      44.020  82.322  16.797  1.00  0.00    -0.390 OA
HETATM   96  H   UNL     1      44.658  82.089  17.518  1.00  0.00     0.210 HD
ENDBRANCH  33  95
BRANCH  34  97
HETATM   97  O   UNL     1      44.788  84.069  18.872  1.00  0.00    -0.388 OA
HETATM   98  H   UNL     1      44.358  83.319  19.356  1.00  0.00     0.210 HD
ENDBRANCH  34  97
ENDBRANCH  28  29
ENDBRANCH   1  28
BRANCH   3  99
HETATM   99  O   UNL     1      40.526  84.692  21.723  1.00  0.00    -0.390 OA
HETATM  100  H   UNL     1      41.254  85.173  22.197  1.00  0.00     0.210 HD
ENDBRANCH   3  99
BRANCH   4 101
HETATM  101  O   UNL     1      43.004  83.803  22.827  1.00  0.00    -0.376 OA
BRANCH 101 102
HETATM  102  C   UNL     1      43.031  84.579  24.025  1.00  0.00     0.194 C 
BRANCH 102 103
HETATM  103  C   UNL     1      42.588  83.760  25.310  1.00  0.00     0.116 C 
BRANCH 103 104
HETATM  104  N   UNL     1      43.754  83.299  26.106  1.00  0.00    -0.343 N 
HETATM  105  C   UNL     1      43.813  82.319  27.035  1.00  0.00     0.111 A 
HETATM  106  C   UNL     1      45.099  82.253  27.521  1.00  0.00     0.135 A 
HETATM  107  N   UNL     1      45.844  83.199  26.925  1.00  0.00    -0.255 NA
HETATM  108  C   UNL     1      45.001  83.824  26.079  1.00  0.00     0.209 A 
ENDBRANCH 103 104
BRANCH 103 109
HETATM  109  C   UNL     1      41.501  84.565  26.122  1.00  0.00     0.053 C 
BRANCH 109 110
HETATM  110  C   UNL     1      40.013  84.081  26.397  1.00  0.00     0.094 C 
BRANCH 110 111
HETATM  111  C   UNL     1      39.385  83.168  25.258  1.00  0.00     0.051 C 
BRANCH 111 112
HETATM  112  C   UNL     1      38.203  83.737  24.370  1.00  0.00     0.094 C 
BRANCH 112 113
HETATM  113  N   UNL     1      37.273  84.594  25.127  1.00  0.00    -0.345 N 
HETATM  114  C   UNL     1      36.279  84.205  25.948  1.00  0.00     0.111 A 
HETATM  115  C   UNL     1      35.615  85.333  26.379  1.00  0.00     0.135 A 
HETATM  116  N   UNL     1      36.174  86.421  25.816  1.00  0.00    -0.255 NA
HETATM  117  C   UNL     1      37.175  85.940  25.055  1.00  0.00     0.209 A 
ENDBRANCH 112 113
BRANCH 112 118
HETATM  118  C   UNL     1      37.327  82.645  23.643  1.00  0.00     0.051 C 
BRANCH 118 119
HETATM  119  C   UNL     1      37.571  81.216  24.217  1.00  0.00     0.094 C 
BRANCH 119 120
HETATM  120  C   UNL     1      36.388  80.566  25.019  1.00  0.00     0.051 C 
BRANCH 120 121
HETATM  121  C   UNL     1      36.613  79.991  26.460  1.00  0.00     0.089 C 
HETATM  122  C   UNL     1      37.520  80.944  27.260  1.00  0.00     0.033 C 
BRANCH 121 123
HETATM  123  N   UNL     1      35.409  79.743  27.237  1.00  0.00    -0.334 N 
HETATM  124  C   UNL     1      34.061  79.949  26.890  1.00  0.00     0.082 A 
HETATM  125  C   UNL     1      33.342  79.579  27.948  1.00  0.00     0.150 A 
HETATM  126  N   UNL     1      34.188  79.138  28.991  1.00  0.00    -0.254 NA
HETATM  127  C   UNL     1      35.383  79.245  28.555  1.00  0.00     0.210 A 
ENDBRANCH 121 123
ENDBRANCH 120 121
ENDBRANCH 119 120
BRANCH 119 128
HETATM  128  N   UNL     1      38.071  80.308  23.166  1.00  0.00    -0.345 N 
HETATM  129  C   UNL     1      38.093  78.956  23.178  1.00  0.00     0.209 A 
HETATM  130  N   UNL     1      38.597  78.442  22.039  1.00  0.00    -0.255 NA
HETATM  131  C   UNL     1      38.898  79.515  21.282  1.00  0.00     0.135 A 
HETATM  132  C   UNL     1      38.573  80.665  21.969  1.00  0.00     0.111 A 
ENDBRANCH 119 128
ENDBRANCH 118 119
ENDBRANCH 112 118
ENDBRANCH 111 112
ENDBRANCH 110 111
BRANCH 110 133
HETATM  133  N   UNL     1      39.795  83.650  27.803  1.00  0.00    -0.345 N 
HETATM  134  C   UNL     1      40.513  82.806  28.569  1.00  0.00     0.111 A 
HETATM  135  C   UNL     1      39.975  82.793  29.836  1.00  0.00     0.135 A 
HETATM  136  N   UNL     1      38.952  83.659  29.887  1.00  0.00    -0.255 NA
HETATM  137  C   UNL     1      38.881  84.178  28.643  1.00  0.00     0.209 A 
ENDBRANCH 110 133
ENDBRANCH 109 110
ENDBRANCH 103 109
ENDBRANCH 102 103
ENDBRANCH 101 102
ENDBRANCH   4 101
BRANCH  13 138
HETATM  138  O   UNL     1      42.279  79.499  26.057  1.00  0.00    -0.390 OA
HETATM  139  H   UNL     1      41.833  79.474  26.943  1.00  0.00     0.210 HD
ENDBRANCH  13 138
BRANCH  17 140
HETATM  140  O   UNL     1      39.610  78.205  26.416  1.00  0.00    -0.388 OA
HETATM  141  H   UNL     1      39.560  79.134  26.760  1.00  0.00     0.210 HD
ENDBRANCH  17 140
BRANCH  15 142
HETATM  142  O   UNL     1      41.541  76.398  26.356  1.00  0.00    -0.348 OA
BRANCH 142 143
HETATM  143  C   UNL     1      42.839  75.818  26.470  1.00  0.00     0.187 C 
HETATM  144  C   UNL     1      43.327  75.763  27.977  1.00  0.00     0.177 C 
HETATM  145  O   UNL     1      44.244  74.689  28.247  1.00  0.00    -0.378 OA
HETATM  146  C   UNL     1      45.029  74.358  27.126  1.00  0.00     0.202 C 
HETATM  147  C   UNL     1      44.158  73.692  26.038  1.00  0.00     0.173 C 
HETATM  148  C   UNL     1      42.757  74.368  25.953  1.00  0.00     0.180 C 
BRANCH 144 149
HETATM  149  C   UNL     1      43.944  77.091  28.451  1.00  0.00     0.215 C 
BRANCH 149 150
HETATM  150  O   UNL     1      43.126  78.225  28.499  1.00  0.00    -0.303 OA
BRANCH 150 151
HETATM  151  C   UNL     1      42.234  78.815  29.358  1.00  0.00     0.323 C 
HETATM  152  C   UNL     1      42.691  80.089  30.021  1.00  0.00     0.147 C 
HETATM  153  O   UNL     1      41.222  79.101  28.738  1.00  0.00    -0.241 OA
BRANCH 151 154
HETATM  154  O   UNL     1      41.943  77.971  30.367  1.00  0.00    -0.132 OA
HETATM  155 NA   UNL     1      43.006  77.975  32.083  1.00  0.00     0.000 Na
ENDBRANCH 151 154
ENDBRANCH 150 151
ENDBRANCH 149 150
ENDBRANCH 144 149
BRANCH 147 156
HETATM  156  O   UNL     1      44.036  72.299  26.209  1.00  0.00    -0.391 OA
HETATM  157  H   UNL     1      44.946  71.902  26.186  1.00  0.00     0.210 HD
ENDBRANCH 147 156
BRANCH 148 158
HETATM  158  O   UNL     1      41.773  73.653  26.670  1.00  0.00    -0.390 OA
HETATM  159  H   UNL     1      41.381  72.955  26.088  1.00  0.00     0.210 HD
ENDBRANCH 148 158
ENDBRANCH 142 143
ENDBRANCH  15 142
TORSDOF 60
ENDMDL
MODEL 8
REMARK VINA RESULT:      -5.5     23.690     30.823
REMARK WARNING: 32 MAX_TORS EXCEEDED!!!
REMARK  60 active torsions:
REMARK  status: ('A' for Active; 'I' for Inactive)
REMARK    1  A    between atoms: C_1  and  O_30 
REMARK    2  A    between atoms: C_3  and  O_9 
REMARK    3  A    between atoms: C_4  and  O_11 
REMARK    4  A    between atoms: O_11  and  C_106 
REMARK    5  A    between atoms: O_14  and  C_18 
REMARK    6  A    between atoms: O_19  and  C_22 
REMARK    7  A    between atoms: O_19  and  C_42 
REMARK    8  A    between atoms: O_21  and  C_24 
REMARK    9  A    between atoms: O_26  and  C_29 
REMARK   10  A    between atoms: C_28  and  C_34 
REMARK   11  A    between atoms: O_30  and  C_33 
REMARK   12  A    between atoms: C_31  and  O_53 
REMARK   13  A    between atoms: O_32  and  C_35 
REMARK   14  A    between atoms: C_34  and  O_59 
REMARK   15  A    between atoms: O_37  and  C_41 
REMARK   16  A    between atoms: C_39  and  C_45 
REMARK   17  A    between atoms: O_40  and  C_45 
REMARK   18  A    between atoms: O_40  and  C_157 
REMARK   19  A    between atoms: O_43  and  C_46 
REMARK   20  A    between atoms: O_48  and  C_52 
REMARK   21  A    between atoms: C_50  and  C_57 
REMARK   22  A    between atoms: O_51  and  C_57 
REMARK   23  A    between atoms: O_51  and  C_135 
REMARK   24  A    between atoms: O_53  and  C_56 
REMARK   25  A    between atoms: O_55  and  C_58 
REMARK   26  A    between atoms: O_55  and  C_60 
REMARK   27  A    between atoms: O_59  and  C_141 
REMARK   28  A    between atoms: C_60  and  C_61 
REMARK   29  A    between atoms: C_61  and  C_62 
REMARK   30  A    between atoms: C_61  and  N_75 
REMARK   31  A    between atoms: C_62  and  C_63 
REMARK   32  A    between atoms: C_63  and  C_64 
REMARK   33  A    between atoms: C_63  and  N_89 
REMARK   34  A    between atoms: C_64  and  C_65 
REMARK   35  A    between atoms: C_65  and  C_66 
REMARK   36  A    between atoms: C_65  and  N_79 
REMARK   37  A    between atoms: C_66  and  C_67 
REMARK   38  A    between atoms: C_67  and  C_68 
REMARK   39  A    between atoms: C_67  and  N_94 
REMARK   40  A    between atoms: C_68  and  C_69 
REMARK   41  A    between atoms: C_69  and  N_84 
REMARK   42  A    between atoms: N_101  and  C_107 
REMARK   43  A    between atoms: C_106  and  C_107 
REMARK   44  A    between atoms: C_107  and  C_114 
REMARK   45  A    between atoms: N_110  and  C_116 
REMARK   46  A    between atoms: C_112  and  C_116 
REMARK   47  A    between atoms: C_112  and  C_118 
REMARK   48  A    between atoms: N_113  and  C_123 
REMARK   49  A    between atoms: C_114  and  C_118 
REMARK   50  A    between atoms: C_116  and  C_120 
REMARK   51  A    between atoms: N_117  and  C_118 
REMARK   52  A    between atoms: C_120  and  C_125 
REMARK   53  A    between atoms: C_123  and  C_124 
REMARK   54  A    between atoms: C_124  and  C_125 
REMARK   55  A    between atoms: C_125  and  N_128 
REMARK   56  A    between atoms: C_135  and  C_136 
REMARK   57  A    between atoms: C_136  and  O_138 
REMARK   58  A    between atoms: C_141  and  C_142 
REMARK   59  A    between atoms: C_142  and  O_143 
REMARK   60  A    between atoms: C_157  and  O_158 
ROOT
HETATM    1  C   UNL     1      49.483  78.862  14.420  1.00  0.00     0.187 C 
HETATM    2  C   UNL     1      48.039  79.456  14.676  1.00  0.00     0.180 C 
HETATM    3  C   UNL     1      49.763  77.520  15.173  1.00  0.00     0.183 C 
HETATM    4  C   UNL     1      48.497  76.611  15.280  1.00  0.00     0.208 C 
HETATM    5  C   UNL     1      47.470  77.565  15.957  1.00  0.00     0.292 C 
HETATM    6  C   UNL     1      47.993  80.632  15.706  1.00  0.00     0.203 C 
HETATM    7  O   UNL     1      46.745  81.302  15.905  1.00  0.00    -0.370 OA
HETATM    8  O   UNL     1      47.035  78.473  14.964  1.00  0.00    -0.348 OA
HETATM    9  O   UNL     1      46.362  76.892  16.578  1.00  0.00    -0.348 OA
HETATM   10  O   UNL     1      44.192  77.285  19.426  1.00  0.00    -0.348 OA
HETATM   11  C   UNL     1      44.972  77.908  18.409  1.00  0.00     0.180 C 
HETATM   12  O   UNL     1      44.084  80.017  19.230  1.00  0.00    -0.304 OA
HETATM   13  C   UNL     1      46.377  75.810  18.821  1.00  0.00     0.183 C 
HETATM   14  C   UNL     1      46.265  77.121  18.010  1.00  0.00     0.187 C 
HETATM   15  C   UNL     1      44.862  76.857  20.606  1.00  0.00     0.292 C 
HETATM   16  C   UNL     1      45.238  79.376  18.794  1.00  0.00     0.215 C 
HETATM   17  C   UNL     1      46.247  76.212  20.312  1.00  0.00     0.204 C 
HETATM   18 NA   UNL     1      43.407  79.844  13.220  1.00  0.00     0.050 Na
HETATM   19  C   UNL     1      45.727  80.870  15.032  1.00  0.00     0.261 C 
HETATM   20  C   UNL     1      44.908  82.008  14.510  1.00  0.00     0.310 C 
HETATM   21  O   UNL     1      43.873  81.751  13.688  1.00  0.00    -0.185 OA
HETATM   22  O   UNL     1      45.158  83.160  14.825  1.00  0.00    -0.261 OA
HETATM   23 NA   UNL     1      41.790  80.059  15.844  1.00  0.00     0.051 Na
HETATM   24  C   UNL     1      41.919  79.297  18.654  1.00  0.00     0.146 C 
HETATM   25  C   UNL     1      42.980  80.351  18.503  1.00  0.00     0.314 C 
HETATM   26  O   UNL     1      43.240  80.448  17.186  1.00  0.00    -0.172 OA
HETATM   27  O   UNL     1      42.492  81.382  18.935  1.00  0.00    -0.242 OA
ENDROOT
BRANCH   1  28
HETATM   28  O   UNL     1      49.684  78.687  13.022  1.00  0.00    -0.348 OA
BRANCH  28  29
HETATM   29  C   UNL     1      49.065  79.705  12.217  1.00  0.00     0.292 C 
HETATM   30  O   UNL     1      48.093  79.097  11.373  1.00  0.00    -0.348 OA
HETATM   31  C   UNL     1      47.425  79.998  10.471  1.00  0.00     0.180 C 
HETATM   32  C   UNL     1      48.336  81.115   9.863  1.00  0.00     0.187 C 
HETATM   33  C   UNL     1      49.798  80.681   9.944  1.00  0.00     0.183 C 
HETATM   34  C   UNL     1      50.168  80.472  11.425  1.00  0.00     0.204 C 
BRANCH  31  35
HETATM   35  C   UNL     1      46.132  80.602  11.086  1.00  0.00     0.203 C 
BRANCH  35  36
HETATM   36  O   UNL     1      45.058  79.693  11.185  1.00  0.00    -0.370 OA
BRANCH  36  37
HETATM   37  C   UNL     1      43.934  80.192  10.516  1.00  0.00     0.262 C 
BRANCH  37  38
HETATM   38  C   UNL     1      43.537  79.214   9.459  1.00  0.00     0.321 C 
HETATM   39  O   UNL     1      43.867  78.042   9.551  1.00  0.00    -0.260 OA
BRANCH  38  40
HETATM   40  O   UNL     1      42.790  79.618   8.417  1.00  0.00    -0.147 OA
HETATM   41 NA   UNL     1      41.584  81.217   8.607  1.00  0.00     0.000 Na
ENDBRANCH  38  40
ENDBRANCH  37  38
ENDBRANCH  36  37
ENDBRANCH  35  36
ENDBRANCH  31  35
BRANCH  32  42
HETATM   42  O   UNL     1      48.038  81.307   8.485  1.00  0.00    -0.348 OA
BRANCH  42  43
HETATM   43  C   UNL     1      47.350  80.246   7.856  1.00  0.00     0.292 C 
HETATM   44  O   UNL     1      48.284  79.542   7.034  1.00  0.00    -0.351 OA
HETATM   45  C   UNL     1      47.889  79.353   5.686  1.00  0.00     0.151 C 
HETATM   46  C   UNL     1      46.463  78.762   5.605  1.00  0.00     0.068 C 
HETATM   47  C   UNL     1      45.425  79.615   6.386  1.00  0.00     0.154 C 
HETATM   48  C   UNL     1      46.072  80.806   7.127  1.00  0.00     0.205 C 
BRANCH  45  49
HETATM   49  C   UNL     1      48.885  78.386   5.011  1.00  0.00     0.200 C 
BRANCH  49  50
HETATM   50  O   UNL     1      48.752  77.051   5.465  1.00  0.00    -0.379 OA
BRANCH  50  51
HETATM   51  C   UNL     1      49.831  76.646   6.285  1.00  0.00     0.281 C 
BRANCH  51  52
HETATM   52  C   UNL     1      49.303  76.112   7.587  1.00  0.00     0.313 C 
HETATM   53  O   UNL     1      49.392  74.924   7.858  1.00  0.00    -0.260 OA
BRANCH  52  54
HETATM   54  O   UNL     1      48.720  76.948   8.467  1.00  0.00    -0.148 OA
HETATM   55 NA   UNL     1      49.683  77.523  10.137  1.00  0.00     0.000 Na
ENDBRANCH  52  54
ENDBRANCH  51  52
ENDBRANCH  50  51
ENDBRANCH  49  50
ENDBRANCH  45  49
BRANCH  47  56
HETATM   56  O   UNL     1      44.365  80.036   5.563  1.00  0.00    -0.393 OA
HETATM   57  H   UNL     1      44.452  81.018   5.436  1.00  0.00     0.210 HD
ENDBRANCH  47  56
BRANCH  48  58
HETATM   58  O   UNL     1      46.336  81.820   6.166  1.00  0.00    -0.376 OA
BRANCH  58  59
HETATM   59  C   UNL     1      45.757  83.084   6.453  1.00  0.00     0.194 C 
BRANCH  59  60
HETATM   60  C   UNL     1      45.004  83.152   7.819  1.00  0.00     0.116 C 
BRANCH  60  61
HETATM   61  C   UNL     1      43.464  83.377   7.595  1.00  0.00     0.053 C 
BRANCH  61  62
HETATM   62  C   UNL     1      42.919  84.774   7.113  1.00  0.00     0.094 C 
BRANCH  62  63
HETATM   63  C   UNL     1      42.903  85.815   8.304  1.00  0.00     0.051 C 
BRANCH  63  64
HETATM   64  C   UNL     1      41.542  86.404   8.810  1.00  0.00     0.094 C 
BRANCH  64  65
HETATM   65  C   UNL     1      40.472  86.528   7.667  1.00  0.00     0.051 C 
BRANCH  65  66
HETATM   66  C   UNL     1      40.026  88.000   7.445  1.00  0.00     0.094 C 
BRANCH  66  67
HETATM   67  C   UNL     1      40.367  89.005   8.596  1.00  0.00     0.051 C 
BRANCH  67  68
HETATM   68  C   UNL     1      41.474  90.088   8.397  1.00  0.00     0.089 C 
HETATM   69  C   UNL     1      41.197  91.277   9.334  1.00  0.00     0.033 C 
BRANCH  68  70
HETATM   70  N   UNL     1      42.841  89.641   8.611  1.00  0.00    -0.334 N 
HETATM   71  C   UNL     1      43.776  89.376   7.591  1.00  0.00     0.210 A 
HETATM   72  N   UNL     1      44.896  88.995   8.071  1.00  0.00    -0.254 NA
HETATM   73  C   UNL     1      44.750  88.998   9.477  1.00  0.00     0.150 A 
HETATM   74  C   UNL     1      43.523  89.389   9.815  1.00  0.00     0.082 A 
ENDBRANCH  68  70
ENDBRANCH  67  68
ENDBRANCH  66  67
BRANCH  66  75
HETATM   75  N   UNL     1      40.412  88.508   6.119  1.00  0.00    -0.345 N 
HETATM   76  C   UNL     1      40.102  89.695   5.553  1.00  0.00     0.209 A 
HETATM   77  N   UNL     1      40.644  89.827   4.325  1.00  0.00    -0.255 NA
HETATM   78  C   UNL     1      41.322  88.681   4.120  1.00  0.00     0.135 A 
HETATM   79  C   UNL     1      41.185  87.870   5.223  1.00  0.00     0.111 A 
ENDBRANCH  66  75
ENDBRANCH  65  66
ENDBRANCH  64  65
BRANCH  64  80
HETATM   80  N   UNL     1      40.959  85.564   9.877  1.00  0.00    -0.345 N 
HETATM   81  C   UNL     1      41.588  84.781  10.778  1.00  0.00     0.209 A 
HETATM   82  N   UNL     1      40.726  84.188  11.630  1.00  0.00    -0.255 NA
HETATM   83  C   UNL     1      39.508  84.625  11.254  1.00  0.00     0.135 A 
HETATM   84  C   UNL     1      39.647  85.476  10.185  1.00  0.00     0.111 A 
ENDBRANCH  64  80
ENDBRANCH  63  64
ENDBRANCH  62  63
BRANCH  62  85
HETATM   85  N   UNL     1      43.489  85.213   5.817  1.00  0.00    -0.345 N 
HETATM   86  C   UNL     1      44.329  86.255   5.640  1.00  0.00     0.209 A 
HETATM   87  N   UNL     1      44.621  86.479   4.344  1.00  0.00    -0.255 NA
HETATM   88  C   UNL     1      43.911  85.559   3.670  1.00  0.00     0.135 A 
HETATM   89  C   UNL     1      43.196  84.798   4.566  1.00  0.00     0.111 A 
ENDBRANCH  62  85
ENDBRANCH  61  62
ENDBRANCH  60  61
BRANCH  60  90
HETATM   90  N   UNL     1      45.635  84.080   8.789  1.00  0.00    -0.343 N 
HETATM   91  C   UNL     1      45.515  84.130  10.136  1.00  0.00     0.111 A 
HETATM   92  C   UNL     1      46.284  85.169  10.606  1.00  0.00     0.135 A 
HETATM   93  N   UNL     1      46.871  85.789   9.568  1.00  0.00    -0.255 NA
HETATM   94  C   UNL     1      46.452  85.113   8.480  1.00  0.00     0.209 A 
ENDBRANCH  60  90
ENDBRANCH  59  60
ENDBRANCH  58  59
ENDBRANCH  48  58
ENDBRANCH  42  43
ENDBRANCH  32  42
BRANCH  33  95
HETATM   95  O   UNL     1      50.030  79.538   9.151  1.00  0.00    -0.390 OA
HETATM   96  H   UNL     1      49.467  79.578   8.337  1.00  0.00     0.210 HD
ENDBRANCH  33  95
BRANCH  34  97
HETATM   97  O   UNL     1      51.453  79.917  11.555  1.00  0.00    -0.388 OA
HETATM   98  H   UNL     1      52.113  80.649  11.453  1.00  0.00     0.210 HD
ENDBRANCH  34  97
ENDBRANCH  28  29
ENDBRANCH   1  28
BRANCH   3  99
HETATM   99  O   UNL     1      50.844  76.840  14.590  1.00  0.00    -0.390 OA
HETATM  100  H   UNL     1      51.667  77.331  14.848  1.00  0.00     0.210 HD
ENDBRANCH   3  99
BRANCH   4 101
HETATM  101  O   UNL     1      48.153  76.110  13.972  1.00  0.00    -0.376 OA
BRANCH 101 102
HETATM  102  C   UNL     1      47.497  74.843  13.966  1.00  0.00     0.194 C 
BRANCH 102 103
HETATM  103  C   UNL     1      47.727  74.028  12.624  1.00  0.00     0.116 C 
BRANCH 103 104
HETATM  104  N   UNL     1      48.705  72.924  12.803  1.00  0.00    -0.343 N 
HETATM  105  C   UNL     1      48.915  72.143  13.886  1.00  0.00     0.111 A 
HETATM  106  C   UNL     1      49.932  71.261  13.600  1.00  0.00     0.135 A 
HETATM  107  N   UNL     1      50.380  71.495  12.355  1.00  0.00    -0.255 NA
HETATM  108  C   UNL     1      49.624  72.514  11.899  1.00  0.00     0.209 A 
ENDBRANCH 103 104
BRANCH 103 109
HETATM  109  C   UNL     1      46.342  73.598  12.002  1.00  0.00     0.053 C 
BRANCH 109 110
HETATM  110  C   UNL     1      46.155  72.649  10.742  1.00  0.00     0.094 C 
BRANCH 110 111
HETATM  111  C   UNL     1      45.125  71.457  10.949  1.00  0.00     0.051 C 
BRANCH 111 112
HETATM  112  C   UNL     1      45.477  70.295  11.967  1.00  0.00     0.094 C 
BRANCH 112 113
HETATM  113  N   UNL     1      45.188  70.648  13.368  1.00  0.00    -0.345 N 
HETATM  114  C   UNL     1      45.789  70.172  14.476  1.00  0.00     0.111 A 
HETATM  115  C   UNL     1      45.152  70.712  15.572  1.00  0.00     0.135 A 
HETATM  116  N   UNL     1      44.146  71.504  15.157  1.00  0.00    -0.255 NA
HETATM  117  C   UNL     1      44.187  71.439  13.813  1.00  0.00     0.209 A 
ENDBRANCH 112 113
BRANCH 112 118
HETATM  118  C   UNL     1      46.972  69.794  11.920  1.00  0.00     0.051 C 
BRANCH 118 119
HETATM  119  C   UNL     1      47.327  69.127  10.556  1.00  0.00     0.094 C 
BRANCH 119 120
HETATM  120  C   UNL     1      48.548  69.729   9.774  1.00  0.00     0.051 C 
BRANCH 120 121
HETATM  121  C   UNL     1      48.431  70.086   8.252  1.00  0.00     0.089 C 
HETATM  122  C   UNL     1      49.083  71.456   7.993  1.00  0.00     0.033 C 
BRANCH 121 123
HETATM  123  N   UNL     1      49.007  69.122   7.330  1.00  0.00    -0.334 N 
HETATM  124  C   UNL     1      49.630  67.889   7.598  1.00  0.00     0.082 A 
HETATM  125  C   UNL     1      49.998  67.392   6.417  1.00  0.00     0.150 A 
HETATM  126  N   UNL     1      49.635  68.275   5.375  1.00  0.00    -0.254 NA
HETATM  127  C   UNL     1      49.065  69.273   5.930  1.00  0.00     0.210 A 
ENDBRANCH 121 123
ENDBRANCH 120 121
ENDBRANCH 119 120
BRANCH 119 128
HETATM  128  N   UNL     1      47.452  67.664  10.707  1.00  0.00    -0.345 N 
HETATM  129  C   UNL     1      47.220  66.711   9.776  1.00  0.00     0.209 A 
HETATM  130  N   UNL     1      47.456  65.470  10.244  1.00  0.00    -0.255 NA
HETATM  131  C   UNL     1      47.857  65.654  11.517  1.00  0.00     0.135 A 
HETATM  132  C   UNL     1      47.860  67.001  11.805  1.00  0.00     0.111 A 
ENDBRANCH 119 128
ENDBRANCH 118 119
ENDBRANCH 112 118
ENDBRANCH 111 112
ENDBRANCH 110 111
BRANCH 110 133
HETATM  133  N   UNL     1      46.068  73.399   9.460  1.00  0.00    -0.345 N 
HETATM  134  C   UNL     1      45.891  72.945   8.204  1.00  0.00     0.111 A 
HETATM  135  C   UNL     1      45.782  74.023   7.356  1.00  0.00     0.135 A 
HETATM  136  N   UNL     1      45.841  75.154   8.075  1.00  0.00    -0.255 NA
HETATM  137  C   UNL     1      45.995  74.741   9.351  1.00  0.00     0.209 A 
ENDBRANCH 110 133
ENDBRANCH 109 110
ENDBRANCH 103 109
ENDBRANCH 102 103
ENDBRANCH 101 102
ENDBRANCH   4 101
BRANCH  13 138
HETATM  138  O   UNL     1      45.368  74.897  18.472  1.00  0.00    -0.390 OA
HETATM  139  H   UNL     1      45.828  74.078  18.152  1.00  0.00     0.210 HD
ENDBRANCH  13 138
BRANCH  17 140
HETATM  140  O   UNL     1      46.551  75.166  21.203  1.00  0.00    -0.388 OA
HETATM  141  H   UNL     1      46.711  75.565  22.096  1.00  0.00     0.210 HD
ENDBRANCH  17 140
BRANCH  15 142
HETATM  142  O   UNL     1      44.005  75.887  21.195  1.00  0.00    -0.348 OA
BRANCH 142 143
HETATM  143  C   UNL     1      43.225  76.363  22.290  1.00  0.00     0.187 C 
HETATM  144  C   UNL     1      41.671  76.213  22.013  1.00  0.00     0.177 C 
HETATM  145  O   UNL     1      40.886  76.052  23.206  1.00  0.00    -0.378 OA
HETATM  146  C   UNL     1      41.453  76.709  24.315  1.00  0.00     0.202 C 
HETATM  147  C   UNL     1      42.749  75.994  24.757  1.00  0.00     0.173 C 
HETATM  148  C   UNL     1      43.564  75.502  23.524  1.00  0.00     0.180 C 
BRANCH 144 149
HETATM  149  C   UNL     1      41.101  77.374  21.179  1.00  0.00     0.215 C 
BRANCH 149 150
HETATM  150  O   UNL     1      39.781  77.774  21.411  1.00  0.00    -0.303 OA
BRANCH 150 151
HETATM  151  C   UNL     1      39.026  78.919  21.351  1.00  0.00     0.323 C 
HETATM  152  C   UNL     1      39.623  80.144  21.992  1.00  0.00     0.147 C 
HETATM  153  O   UNL     1      38.841  79.206  20.179  1.00  0.00    -0.241 OA
BRANCH 151 154
HETATM  154  O   UNL     1      37.848  78.724  21.976  1.00  0.00    -0.132 OA
HETATM  155 NA   UNL     1      36.222  78.068  20.977  1.00  0.00     0.000 Na
ENDBRANCH 151 154
ENDBRANCH 150 151
ENDBRANCH 149 150
ENDBRANCH 144 149
BRANCH 147 156
HETATM  156  O   UNL     1      42.513  74.938  25.659  1.00  0.00    -0.391 OA
HETATM  157  H   UNL     1      42.036  75.304  26.448  1.00  0.00     0.210 HD
ENDBRANCH 147 156
BRANCH 148 158
HETATM  158  O   UNL     1      43.335  74.138  23.239  1.00  0.00    -0.390 OA
HETATM  159  H   UNL     1      43.403  73.988  22.263  1.00  0.00     0.210 HD
ENDBRANCH 148 158
ENDBRANCH 142 143
ENDBRANCH  15 142
TORSDOF 60
ENDMDL
MODEL 9
REMARK VINA RESULT:      -5.5     23.703     30.528
REMARK WARNING: 32 MAX_TORS EXCEEDED!!!
REMARK  60 active torsions:
REMARK  status: ('A' for Active; 'I' for Inactive)
REMARK    1  A    between atoms: C_1  and  O_30 
REMARK    2  A    between atoms: C_3  and  O_9 
REMARK    3  A    between atoms: C_4  and  O_11 
REMARK    4  A    between atoms: O_11  and  C_106 
REMARK    5  A    between atoms: O_14  and  C_18 
REMARK    6  A    between atoms: O_19  and  C_22 
REMARK    7  A    between atoms: O_19  and  C_42 
REMARK    8  A    between atoms: O_21  and  C_24 
REMARK    9  A    between atoms: O_26  and  C_29 
REMARK   10  A    between atoms: C_28  and  C_34 
REMARK   11  A    between atoms: O_30  and  C_33 
REMARK   12  A    between atoms: C_31  and  O_53 
REMARK   13  A    between atoms: O_32  and  C_35 
REMARK   14  A    between atoms: C_34  and  O_59 
REMARK   15  A    between atoms: O_37  and  C_41 
REMARK   16  A    between atoms: C_39  and  C_45 
REMARK   17  A    between atoms: O_40  and  C_45 
REMARK   18  A    between atoms: O_40  and  C_157 
REMARK   19  A    between atoms: O_43  and  C_46 
REMARK   20  A    between atoms: O_48  and  C_52 
REMARK   21  A    between atoms: C_50  and  C_57 
REMARK   22  A    between atoms: O_51  and  C_57 
REMARK   23  A    between atoms: O_51  and  C_135 
REMARK   24  A    between atoms: O_53  and  C_56 
REMARK   25  A    between atoms: O_55  and  C_58 
REMARK   26  A    between atoms: O_55  and  C_60 
REMARK   27  A    between atoms: O_59  and  C_141 
REMARK   28  A    between atoms: C_60  and  C_61 
REMARK   29  A    between atoms: C_61  and  C_62 
REMARK   30  A    between atoms: C_61  and  N_75 
REMARK   31  A    between atoms: C_62  and  C_63 
REMARK   32  A    between atoms: C_63  and  C_64 
REMARK   33  A    between atoms: C_63  and  N_89 
REMARK   34  A    between atoms: C_64  and  C_65 
REMARK   35  A    between atoms: C_65  and  C_66 
REMARK   36  A    between atoms: C_65  and  N_79 
REMARK   37  A    between atoms: C_66  and  C_67 
REMARK   38  A    between atoms: C_67  and  C_68 
REMARK   39  A    between atoms: C_67  and  N_94 
REMARK   40  A    between atoms: C_68  and  C_69 
REMARK   41  A    between atoms: C_69  and  N_84 
REMARK   42  A    between atoms: N_101  and  C_107 
REMARK   43  A    between atoms: C_106  and  C_107 
REMARK   44  A    between atoms: C_107  and  C_114 
REMARK   45  A    between atoms: N_110  and  C_116 
REMARK   46  A    between atoms: C_112  and  C_116 
REMARK   47  A    between atoms: C_112  and  C_118 
REMARK   48  A    between atoms: N_113  and  C_123 
REMARK   49  A    between atoms: C_114  and  C_118 
REMARK   50  A    between atoms: C_116  and  C_120 
REMARK   51  A    between atoms: N_117  and  C_118 
REMARK   52  A    between atoms: C_120  and  C_125 
REMARK   53  A    between atoms: C_123  and  C_124 
REMARK   54  A    between atoms: C_124  and  C_125 
REMARK   55  A    between atoms: C_125  and  N_128 
REMARK   56  A    between atoms: C_135  and  C_136 
REMARK   57  A    between atoms: C_136  and  O_138 
REMARK   58  A    between atoms: C_141  and  C_142 
REMARK   59  A    between atoms: C_142  and  O_143 
REMARK   60  A    between atoms: C_157  and  O_158 
ROOT
HETATM    1  C   UNL     1      49.280  78.444  14.875  1.00  0.00     0.187 C 
HETATM    2  C   UNL     1      47.861  79.118  15.060  1.00  0.00     0.180 C 
HETATM    3  C   UNL     1      49.478  77.138  15.712  1.00  0.00     0.183 C 
HETATM    4  C   UNL     1      48.169  76.296  15.841  1.00  0.00     0.208 C 
HETATM    5  C   UNL     1      47.173  77.336  16.435  1.00  0.00     0.292 C 
HETATM    6  C   UNL     1      47.848  80.355  16.016  1.00  0.00     0.203 C 
HETATM    7  O   UNL     1      46.630  81.093  16.144  1.00  0.00    -0.370 OA
HETATM    8  O   UNL     1      46.805  78.203  15.379  1.00  0.00    -0.348 OA
HETATM    9  O   UNL     1      46.021  76.754  17.067  1.00  0.00    -0.348 OA
HETATM   10  O   UNL     1      43.809  77.418  19.831  1.00  0.00    -0.348 OA
HETATM   11  C   UNL     1      44.641  77.942  18.799  1.00  0.00     0.180 C 
HETATM   12  O   UNL     1      43.837  80.135  19.472  1.00  0.00    -0.304 OA
HETATM   13  C   UNL     1      45.934  75.810  19.369  1.00  0.00     0.183 C 
HETATM   14  C   UNL     1      45.903  77.073  18.479  1.00  0.00     0.187 C 
HETATM   15  C   UNL     1      44.432  77.031  21.051  1.00  0.00     0.292 C 
HETATM   16  C   UNL     1      44.968  79.416  19.103  1.00  0.00     0.215 C 
HETATM   17  C   UNL     1      45.790  76.306  20.830  1.00  0.00     0.204 C 
HETATM   18 NA   UNL     1      43.287  79.633  13.467  1.00  0.00     0.050 Na
HETATM   19  C   UNL     1      45.612  80.657  15.273  1.00  0.00     0.261 C 
HETATM   20  C   UNL     1      44.860  81.799  14.665  1.00  0.00     0.310 C 
HETATM   21  O   UNL     1      43.832  81.541  13.834  1.00  0.00    -0.185 OA
HETATM   22  O   UNL     1      45.158  82.955  14.917  1.00  0.00    -0.261 OA
HETATM   23 NA   UNL     1      41.623  80.081  16.033  1.00  0.00     0.051 Na
HETATM   24  C   UNL     1      41.654  79.483  18.885  1.00  0.00     0.146 C 
HETATM   25  C   UNL     1      42.767  80.476  18.699  1.00  0.00     0.314 C 
HETATM   26  O   UNL     1      43.061  80.481  17.385  1.00  0.00    -0.172 OA
HETATM   27  O   UNL     1      42.320  81.553  19.057  1.00  0.00    -0.242 OA
ENDROOT
BRANCH   1  28
HETATM   28  O   UNL     1      49.503  78.175  13.495  1.00  0.00    -0.348 OA
BRANCH  28  29
HETATM   29  C   UNL     1      48.894  79.134  12.614  1.00  0.00     0.292 C 
HETATM   30  O   UNL     1      47.828  78.503  11.913  1.00  0.00    -0.348 OA
HETATM   31  C   UNL     1      47.155  79.338  10.953  1.00  0.00     0.180 C 
HETATM   32  C   UNL     1      48.088  80.309  10.158  1.00  0.00     0.187 C 
HETATM   33  C   UNL     1      49.523  79.785  10.198  1.00  0.00     0.183 C 
HETATM   34  C   UNL     1      49.984  79.724  11.666  1.00  0.00     0.204 C 
BRANCH  31  35
HETATM   35  C   UNL     1      45.950  80.101  11.571  1.00  0.00     0.203 C 
BRANCH  35  36
HETATM   36  O   UNL     1      44.721  79.411  11.484  1.00  0.00    -0.370 OA
BRANCH  36  37
HETATM   37  C   UNL     1      43.936  79.944  10.455  1.00  0.00     0.262 C 
BRANCH  37  38
HETATM   38  C   UNL     1      43.975  79.007   9.293  1.00  0.00     0.321 C 
HETATM   39  O   UNL     1      43.953  79.442   8.151  1.00  0.00    -0.260 OA
BRANCH  38  40
HETATM   40  O   UNL     1      44.063  77.682   9.501  1.00  0.00    -0.147 OA
HETATM   41 NA   UNL     1      45.385  76.961  10.835  1.00  0.00     0.000 Na
ENDBRANCH  38  40
ENDBRANCH  37  38
ENDBRANCH  36  37
ENDBRANCH  35  36
ENDBRANCH  31  35
BRANCH  32  42
HETATM   42  O   UNL     1      47.705  80.360   8.789  1.00  0.00    -0.348 OA
BRANCH  42  43
HETATM   43  C   UNL     1      47.469  81.652   8.269  1.00  0.00     0.292 C 
HETATM   44  O   UNL     1      46.196  82.092   8.748  1.00  0.00    -0.351 OA
HETATM   45  C   UNL     1      45.296  82.550   7.753  1.00  0.00     0.151 C 
HETATM   46  C   UNL     1      45.974  83.586   6.827  1.00  0.00     0.068 C 
HETATM   47  C   UNL     1      47.287  83.045   6.198  1.00  0.00     0.154 C 
HETATM   48  C   UNL     1      47.651  81.633   6.706  1.00  0.00     0.205 C 
BRANCH  45  49
HETATM   49  C   UNL     1      44.080  83.200   8.449  1.00  0.00     0.200 C 
BRANCH  49  50
HETATM   50  O   UNL     1      42.843  82.676   8.002  1.00  0.00    -0.379 OA
BRANCH  50  51
HETATM   51  C   UNL     1      41.783  82.944   8.900  1.00  0.00     0.281 C 
BRANCH  51  52
HETATM   52  C   UNL     1      41.020  84.152   8.432  1.00  0.00     0.313 C 
HETATM   53  O   UNL     1      41.006  84.466   7.252  1.00  0.00    -0.260 OA
BRANCH  52  54
HETATM   54  O   UNL     1      40.344  84.903   9.322  1.00  0.00    -0.148 OA
HETATM   55 NA   UNL     1      38.413  84.520   9.739  1.00  0.00     0.000 Na
ENDBRANCH  52  54
ENDBRANCH  51  52
ENDBRANCH  50  51
ENDBRANCH  49  50
ENDBRANCH  45  49
BRANCH  47  56
HETATM   56  O   UNL     1      47.255  83.094   4.792  1.00  0.00    -0.393 OA
HETATM   57  H   UNL     1      47.413  84.037   4.518  1.00  0.00     0.210 HD
ENDBRANCH  47  56
BRANCH  48  58
HETATM   58  O   UNL     1      46.820  80.702   6.025  1.00  0.00    -0.376 OA
BRANCH  58  59
HETATM   59  C   UNL     1      47.492  79.861   5.100  1.00  0.00     0.194 C 
BRANCH  59  60
HETATM   60  C   UNL     1      46.599  78.739   4.483  1.00  0.00     0.116 C 
BRANCH  60  61
HETATM   61  C   UNL     1      47.477  77.518   4.024  1.00  0.00     0.053 C 
BRANCH  61  62
HETATM   62  C   UNL     1      48.641  77.713   2.980  1.00  0.00     0.094 C 
BRANCH  62  63
HETATM   63  C   UNL     1      49.786  76.644   3.206  1.00  0.00     0.051 C 
BRANCH  63  64
HETATM   64  C   UNL     1      49.597  75.510   4.269  1.00  0.00     0.094 C 
BRANCH  64  65
HETATM   65  C   UNL     1      50.187  74.132   3.797  1.00  0.00     0.051 C 
BRANCH  65  66
HETATM   66  C   UNL     1      49.090  73.037   3.683  1.00  0.00     0.094 C 
BRANCH  66  67
HETATM   67  C   UNL     1      48.191  72.827   4.948  1.00  0.00     0.051 C 
BRANCH  67  68
HETATM   68  C   UNL     1      48.598  71.793   6.045  1.00  0.00     0.089 C 
HETATM   69  C   UNL     1      48.944  70.451   5.376  1.00  0.00     0.033 C 
BRANCH  68  70
HETATM   70  N   UNL     1      49.707  72.182   6.900  1.00  0.00    -0.334 N 
HETATM   71  C   UNL     1      49.584  72.852   8.133  1.00  0.00     0.210 A 
HETATM   72  N   UNL     1      50.725  73.069   8.664  1.00  0.00    -0.254 NA
HETATM   73  C   UNL     1      51.686  72.528   7.780  1.00  0.00     0.150 A 
HETATM   74  C   UNL     1      51.089  71.988   6.720  1.00  0.00     0.082 A 
ENDBRANCH  68  70
ENDBRANCH  67  68
ENDBRANCH  66  67
BRANCH  66  75
HETATM   75  N   UNL     1      48.304  73.159   2.446  1.00  0.00    -0.345 N 
HETATM   76  C   UNL     1      48.663  72.825   1.188  1.00  0.00     0.209 A 
HETATM   77  N   UNL     1      47.677  73.062   0.299  1.00  0.00    -0.255 NA
HETATM   78  C   UNL     1      46.661  73.559   1.032  1.00  0.00     0.135 A 
HETATM   79  C   UNL     1      47.042  73.616   2.353  1.00  0.00     0.111 A 
ENDBRANCH  66  75
ENDBRANCH  65  66
ENDBRANCH  64  65
BRANCH  64  80
HETATM   80  N   UNL     1      50.250  75.860   5.547  1.00  0.00    -0.345 N 
HETATM   81  C   UNL     1      49.685  76.257   6.706  1.00  0.00     0.209 A 
HETATM   82  N   UNL     1      50.599  76.453   7.679  1.00  0.00    -0.255 NA
HETATM   83  C   UNL     1      51.784  76.157   7.110  1.00  0.00     0.135 A 
HETATM   84  C   UNL     1      51.574  75.784   5.805  1.00  0.00     0.111 A 
ENDBRANCH  64  80
ENDBRANCH  63  64
ENDBRANCH  62  63
BRANCH  62  85
HETATM   85  N   UNL     1      48.160  77.932   1.596  1.00  0.00    -0.345 N 
HETATM   86  C   UNL     1      48.147  79.115   0.944  1.00  0.00     0.209 A 
HETATM   87  N   UNL     1      47.577  79.037  -0.273  1.00  0.00    -0.255 NA
HETATM   88  C   UNL     1      47.184  77.757  -0.385  1.00  0.00     0.135 A 
HETATM   89  C   UNL     1      47.516  77.082   0.767  1.00  0.00     0.111 A 
ENDBRANCH  62  85
ENDBRANCH  61  62
ENDBRANCH  60  61
BRANCH  60  90
HETATM   90  N   UNL     1      45.650  79.243   3.460  1.00  0.00    -0.343 N 
HETATM   91  C   UNL     1      45.413  80.512   3.057  1.00  0.00     0.111 A 
HETATM   92  C   UNL     1      44.438  80.489   2.088  1.00  0.00     0.135 A 
HETATM   93  N   UNL     1      44.041  79.220   1.890  1.00  0.00    -0.255 NA
HETATM   94  C   UNL     1      44.786  78.489   2.741  1.00  0.00     0.209 A 
ENDBRANCH  60  90
ENDBRANCH  59  60
ENDBRANCH  58  59
ENDBRANCH  48  58
ENDBRANCH  42  43
ENDBRANCH  32  42
BRANCH  33  95
HETATM   95  O   UNL     1      49.625  78.544   9.535  1.00  0.00    -0.390 OA
HETATM   96  H   UNL     1      49.147  78.589   8.668  1.00  0.00     0.210 HD
ENDBRANCH  33  95
BRANCH  34  97
HETATM   97  O   UNL     1      51.237  79.098  11.780  1.00  0.00    -0.388 OA
HETATM   98  H   UNL     1      51.290  78.684  12.679  1.00  0.00     0.210 HD
ENDBRANCH  34  97
ENDBRANCH  28  29
ENDBRANCH   1  28
BRANCH   3  99
HETATM   99  O   UNL     1      50.538  76.374  15.198  1.00  0.00    -0.390 OA
HETATM  100  H   UNL     1      50.150  75.760  14.521  1.00  0.00     0.210 HD
ENDBRANCH   3  99
BRANCH   4 101
HETATM  101  O   UNL     1      47.830  75.734  14.557  1.00  0.00    -0.376 OA
BRANCH 101 102
HETATM  102  C   UNL     1      47.210  74.450  14.606  1.00  0.00     0.194 C 
BRANCH 102 103
HETATM  103  C   UNL     1      48.248  73.261  14.771  1.00  0.00     0.116 C 
BRANCH 103 104
HETATM  104  N   UNL     1      47.919  72.390  15.927  1.00  0.00    -0.343 N 
HETATM  105  C   UNL     1      48.326  71.126  16.181  1.00  0.00     0.111 A 
HETATM  106  C   UNL     1      47.758  70.712  17.365  1.00  0.00     0.135 A 
HETATM  107  N   UNL     1      46.978  71.695  17.846  1.00  0.00    -0.255 NA
HETATM  108  C   UNL     1      47.087  72.696  16.950  1.00  0.00     0.209 A 
ENDBRANCH 103 104
BRANCH 103 109
HETATM  109  C   UNL     1      48.436  72.506  13.398  1.00  0.00     0.053 C 
BRANCH 109 110
HETATM  110  C   UNL     1      48.492  73.195  11.968  1.00  0.00     0.094 C 
BRANCH 110 111
HETATM  111  C   UNL     1      47.076  73.558  11.344  1.00  0.00     0.051 C 
BRANCH 111 112
HETATM  112  C   UNL     1      46.471  72.638  10.205  1.00  0.00     0.094 C 
BRANCH 112 113
HETATM  113  N   UNL     1      46.192  73.371   8.958  1.00  0.00    -0.345 N 
HETATM  114  C   UNL     1      46.381  74.683   8.716  1.00  0.00     0.111 A 
HETATM  115  C   UNL     1      45.911  74.955   7.449  1.00  0.00     0.135 A 
HETATM  116  N   UNL     1      45.412  73.828   6.908  1.00  0.00    -0.255 NA
HETATM  117  C   UNL     1      45.590  72.884   7.851  1.00  0.00     0.209 A 
ENDBRANCH 112 113
BRANCH 112 118
HETATM  118  C   UNL     1      45.145  71.877  10.594  1.00  0.00     0.051 C 
BRANCH 118 119
HETATM  119  C   UNL     1      45.431  70.536  11.337  1.00  0.00     0.094 C 
BRANCH 119 120
HETATM  120  C   UNL     1      46.838  69.883  11.096  1.00  0.00     0.051 C 
BRANCH 120 121
HETATM  121  C   UNL     1      47.040  68.796   9.984  1.00  0.00     0.089 C 
HETATM  122  C   UNL     1      47.766  69.421   8.779  1.00  0.00     0.033 C 
BRANCH 121 123
HETATM  123  N   UNL     1      47.766  67.604  10.390  1.00  0.00    -0.334 N 
HETATM  124  C   UNL     1      47.412  66.249  10.248  1.00  0.00     0.082 A 
HETATM  125  C   UNL     1      48.403  65.545  10.791  1.00  0.00     0.150 A 
HETATM  126  N   UNL     1      49.404  66.407  11.295  1.00  0.00    -0.254 NA
HETATM  127  C   UNL     1      49.009  67.597  11.053  1.00  0.00     0.210 A 
ENDBRANCH 121 123
ENDBRANCH 120 121
ENDBRANCH 119 120
BRANCH 119 128
HETATM  128  N   UNL     1      45.136  70.664  12.778  1.00  0.00    -0.345 N 
HETATM  129  C   UNL     1      45.535  69.850  13.782  1.00  0.00     0.209 A 
HETATM  130  N   UNL     1      45.105  70.275  14.986  1.00  0.00    -0.255 NA
HETATM  131  C   UNL     1      44.414  71.402  14.726  1.00  0.00     0.135 A 
HETATM  132  C   UNL     1      44.434  71.647  13.370  1.00  0.00     0.111 A 
ENDBRANCH 119 128
ENDBRANCH 118 119
ENDBRANCH 112 118
ENDBRANCH 111 112
ENDBRANCH 110 111
BRANCH 110 133
HETATM  133  N   UNL     1      49.558  74.227  11.864  1.00  0.00    -0.345 N 
HETATM  134  C   UNL     1      50.850  74.174  12.242  1.00  0.00     0.111 A 
HETATM  135  C   UNL     1      51.471  75.340  11.856  1.00  0.00     0.135 A 
HETATM  136  N   UNL     1      50.591  76.107  11.195  1.00  0.00    -0.255 NA
HETATM  137  C   UNL     1      49.445  75.395  11.200  1.00  0.00     0.209 A 
ENDBRANCH 110 133
ENDBRANCH 109 110
ENDBRANCH 103 109
ENDBRANCH 102 103
ENDBRANCH 101 102
ENDBRANCH   4 101
BRANCH  13 138
HETATM  138  O   UNL     1      44.891  74.925  19.050  1.00  0.00    -0.390 OA
HETATM  139  H   UNL     1      45.056  74.618  18.120  1.00  0.00     0.210 HD
ENDBRANCH  13 138
BRANCH  17 140
HETATM  140  O   UNL     1      46.024  75.303  21.788  1.00  0.00    -0.388 OA
HETATM  141  H   UNL     1      45.724  74.440  21.403  1.00  0.00     0.210 HD
ENDBRANCH  17 140
BRANCH  15 142
HETATM  142  O   UNL     1      43.517  76.139  21.675  1.00  0.00    -0.348 OA
BRANCH 142 143
HETATM  143  C   UNL     1      42.999  76.590  22.925  1.00  0.00     0.187 C 
HETATM  144  C   UNL     1      41.416  76.686  22.904  1.00  0.00     0.177 C 
HETATM  145  O   UNL     1      40.811  76.500  24.195  1.00  0.00    -0.378 OA
HETATM  146  C   UNL     1      41.638  76.942  25.245  1.00  0.00     0.202 C 
HETATM  147  C   UNL     1      42.861  76.011  25.393  1.00  0.00     0.173 C 
HETATM  148  C   UNL     1      43.389  75.556  24.000  1.00  0.00     0.180 C 
BRANCH 144 149
HETATM  149  C   UNL     1      40.909  78.001  22.287  1.00  0.00     0.215 C 
BRANCH 149 150
HETATM  150  O   UNL     1      39.585  78.059  21.839  1.00  0.00    -0.303 OA
BRANCH 150 151
HETATM  151  C   UNL     1      38.517  78.918  21.891  1.00  0.00     0.323 C 
HETATM  152  C   UNL     1      38.792  80.347  21.499  1.00  0.00     0.147 C 
HETATM  153  O   UNL     1      37.653  78.518  21.126  1.00  0.00    -0.241 OA
BRANCH 151 154
HETATM  154  O   UNL     1      38.037  78.978  23.149  1.00  0.00    -0.132 OA
HETATM  155 NA   UNL     1      36.912  80.533  23.773  1.00  0.00     0.000 Na
ENDBRANCH 151 154
ENDBRANCH 150 151
ENDBRANCH 149 150
ENDBRANCH 144 149
BRANCH 147 156
HETATM  156  O   UNL     1      42.610  74.902  26.224  1.00  0.00    -0.391 OA
HETATM  157  H   UNL     1      41.826  75.113  26.795  1.00  0.00     0.210 HD
ENDBRANCH 147 156
BRANCH 148 158
HETATM  158  O   UNL     1      42.912  74.278  23.638  1.00  0.00    -0.390 OA
HETATM  159  H   UNL     1      42.013  74.363  23.231  1.00  0.00     0.210 HD
ENDBRANCH 148 158
ENDBRANCH 142 143
ENDBRANCH  15 142
TORSDOF 60
ENDMDL
