MODEL 1
REMARK VINA RESULT:      -6.5      0.000      0.000
REMARK WARNING: 32 MAX_TORS EXCEEDED!!!
REMARK  61 active torsions:
REMARK  status: ('A' for Active; 'I' for Inactive)
REMARK    1  A    between atoms: C_1  and  O_30 
REMARK    2  A    between atoms: C_2  and  C_6 
REMARK    3  A    between atoms: C_3  and  O_9 
REMARK    4  A    between atoms: C_4  and  O_11 
REMARK    5  A    between atoms: C_5  and  O_12 
REMARK    6  A    between atoms: C_6  and  O_7 
REMARK    7  A    between atoms: O_7  and  C_147 
REMARK    8  A    between atoms: O_11  and  C_107 
REMARK    9  A    between atoms: O_12  and  C_20 
REMARK   10  A    between atoms: O_14  and  C_18 
REMARK   11  A    between atoms: O_21  and  C_24 
REMARK   12  A    between atoms: O_26  and  C_29 
REMARK   13  A    between atoms: C_28  and  C_34 
REMARK   14  A    between atoms: O_30  and  C_33 
REMARK   15  A    between atoms: C_31  and  O_53 
REMARK   16  A    between atoms: O_32  and  C_35 
REMARK   17  A    between atoms: C_34  and  O_59 
REMARK   18  A    between atoms: O_37  and  C_41 
REMARK   19  A    between atoms: O_43  and  C_46 
REMARK   20  A    between atoms: O_48  and  C_52 
REMARK   21  A    between atoms: C_50  and  C_57 
REMARK   22  A    between atoms: O_51  and  C_57 
REMARK   23  A    between atoms: O_51  and  C_60 
REMARK   24  A    between atoms: O_53  and  C_56 
REMARK   25  A    between atoms: O_55  and  C_58 
REMARK   26  A    between atoms: O_55  and  C_61 
REMARK   27  A    between atoms: O_59  and  C_142 
REMARK   28  A    between atoms: C_60  and  C_137 
REMARK   29  A    between atoms: C_61  and  C_62 
REMARK   30  A    between atoms: C_62  and  C_63 
REMARK   31  A    between atoms: C_62  and  N_76 
REMARK   32  A    between atoms: C_63  and  C_64 
REMARK   33  A    between atoms: C_64  and  C_65 
REMARK   34  A    between atoms: C_64  and  N_90 
REMARK   35  A    between atoms: C_65  and  C_66 
REMARK   36  A    between atoms: C_66  and  C_67 
REMARK   37  A    between atoms: C_66  and  N_80 
REMARK   38  A    between atoms: C_67  and  C_68 
REMARK   39  A    between atoms: C_68  and  C_69 
REMARK   40  A    between atoms: C_68  and  N_95 
REMARK   41  A    between atoms: C_69  and  C_70 
REMARK   42  A    between atoms: C_70  and  N_85 
REMARK   43  A    between atoms: N_102  and  C_108 
REMARK   44  A    between atoms: C_107  and  C_108 
REMARK   45  A    between atoms: C_108  and  C_115 
REMARK   46  A    between atoms: N_111  and  C_117 
REMARK   47  A    between atoms: C_113  and  C_117 
REMARK   48  A    between atoms: C_113  and  C_119 
REMARK   49  A    between atoms: N_114  and  C_124 
REMARK   50  A    between atoms: C_115  and  C_119 
REMARK   51  A    between atoms: C_117  and  C_121 
REMARK   52  A    between atoms: N_118  and  C_119 
REMARK   53  A    between atoms: C_121  and  C_126 
REMARK   54  A    between atoms: C_124  and  C_125 
REMARK   55  A    between atoms: C_125  and  C_126 
REMARK   56  A    between atoms: C_126  and  N_129 
REMARK   57  A    between atoms: C_137  and  O_139 
REMARK   58  A    between atoms: C_142  and  C_144 
REMARK   59  A    between atoms: O_143  and  C_144 
REMARK   60  A    between atoms: C_147  and  C_149 
REMARK   61  A    between atoms: O_148  and  C_149 
ROOT
HETATM    1  C   UNL     1      25.299  70.207  26.779  1.00  0.00     0.187 C 
HETATM    2  C   UNL     1      25.183  69.029  25.746  1.00  0.00     0.180 C 
HETATM    3  C   UNL     1      24.460  71.438  26.358  1.00  0.00     0.183 C 
HETATM    4  C   UNL     1      23.031  71.010  25.901  1.00  0.00     0.208 C 
HETATM    5  C   UNL     1      23.304  70.032  24.732  1.00  0.00     0.292 C 
HETATM    6  O   UNL     1      23.847  68.827  25.253  1.00  0.00    -0.348 OA
ENDROOT
BRANCH   1   7
HETATM    7  O   UNL     1      24.851  69.773  28.051  1.00  0.00    -0.348 OA
BRANCH   7   8
HETATM    8  C   UNL     1      25.718  70.149  29.124  1.00  0.00     0.292 C 
HETATM    9  O   UNL     1      26.948  69.472  28.964  1.00  0.00    -0.348 OA
HETATM   10  C   UNL     1      27.933  69.829  29.944  1.00  0.00     0.180 C 
HETATM   11  C   UNL     1      27.356  70.216  31.347  1.00  0.00     0.187 C 
HETATM   12  C   UNL     1      26.075  69.416  31.572  1.00  0.00     0.183 C 
HETATM   13  C   UNL     1      25.040  69.829  30.494  1.00  0.00     0.204 C 
BRANCH  10  14
HETATM   14  C   UNL     1      28.882  70.907  29.406  1.00  0.00     0.203 C 
BRANCH  14  15
HETATM   15  O   UNL     1      29.389  70.499  28.154  1.00  0.00    -0.379 OA
BRANCH  15  16
HETATM   16  C   UNL     1      30.674  69.942  28.323  1.00  0.00     0.281 C 
BRANCH  16  17
HETATM   17  C   UNL     1      31.615  70.616  27.376  1.00  0.00     0.313 C 
HETATM   18  O   UNL     1      32.822  70.484  27.503  1.00  0.00    -0.260 OA
BRANCH  17  19
HETATM   19  O   UNL     1      31.129  71.375  26.375  1.00  0.00    -0.148 OA
HETATM   20 Na   UNL     1      30.536  73.265  26.750  1.00  0.00     0.000 Na
ENDBRANCH  17  19
ENDBRANCH  16  17
ENDBRANCH  15  16
ENDBRANCH  14  15
ENDBRANCH  10  14
BRANCH  11  21
HETATM   21  O   UNL     1      28.289  69.879  32.364  1.00  0.00    -0.348 OA
BRANCH  21  22
HETATM   22  C   UNL     1      28.586  70.930  33.266  1.00  0.00     0.292 C 
HETATM   23  O   UNL     1      28.146  72.146  32.667  1.00  0.00    -0.351 OA
HETATM   24  C   UNL     1      28.628  73.351  33.274  1.00  0.00     0.151 C 
HETATM   25  C   UNL     1      29.263  73.134  34.667  1.00  0.00     0.068 C 
HETATM   26  C   UNL     1      30.394  72.077  34.613  1.00  0.00     0.154 C 
HETATM   27  C   UNL     1      30.116  70.959  33.560  1.00  0.00     0.205 C 
BRANCH  24  28
HETATM   28  C   UNL     1      27.451  74.328  33.391  1.00  0.00     0.200 C 
BRANCH  28  29
HETATM   29  O   UNL     1      26.274  73.700  32.924  1.00  0.00    -0.379 OA
BRANCH  29  30
HETATM   30  C   UNL     1      25.471  74.634  32.233  1.00  0.00     0.281 C 
BRANCH  30  31
HETATM   31  C   UNL     1      25.809  74.576  30.774  1.00  0.00     0.313 C 
HETATM   32  O   UNL     1      26.369  75.517  30.234  1.00  0.00    -0.260 OA
BRANCH  31  33
HETATM   33  O   UNL     1      25.497  73.484  30.050  1.00  0.00    -0.148 OA
HETATM   34 Na   UNL     1      26.495  73.061  28.353  1.00  0.00     0.000 Na
ENDBRANCH  31  33
ENDBRANCH  30  31
ENDBRANCH  29  30
ENDBRANCH  28  29
ENDBRANCH  24  28
BRANCH  26  35
HETATM   35  O   UNL     1      31.669  72.650  34.436  1.00  0.00    -0.393 OA
HETATM   36  H   UNL     1      32.320  72.136  34.983  1.00  0.00     0.210 HD
ENDBRANCH  26  35
BRANCH  27  37
HETATM   37  O   UNL     1      30.939  71.191  32.346  1.00  0.00    -0.376 OA
BRANCH  37  38
HETATM   38  C   UNL     1      31.847  70.095  31.951  1.00  0.00     0.194 C 
BRANCH  38  39
HETATM   39  C   UNL     1      32.977  70.567  30.986  1.00  0.00     0.116 C 
BRANCH  39  40
HETATM   40  C   UNL     1      33.946  69.343  30.717  1.00  0.00     0.053 C 
BRANCH  40  41
HETATM   41  C   UNL     1      35.503  69.540  30.648  1.00  0.00     0.094 C 
BRANCH  41  42
HETATM   42  C   UNL     1      36.205  68.142  30.930  1.00  0.00     0.051 C 
BRANCH  42  43
HETATM   43  C   UNL     1      35.784  66.789  30.253  1.00  0.00     0.094 C 
BRANCH  43  44
HETATM   44  C   UNL     1      36.941  66.210  29.378  1.00  0.00     0.051 C 
BRANCH  44  45
HETATM   45  C   UNL     1      38.335  66.495  29.992  1.00  0.00     0.094 C 
BRANCH  45  46
HETATM   46  C   UNL     1      39.304  65.274  30.113  1.00  0.00     0.051 C 
BRANCH  46  47
HETATM   47  C   UNL     1      40.082  65.009  31.438  1.00  0.00     0.089 C 
HETATM   48  C   UNL     1      39.153  65.247  32.639  1.00  0.00     0.033 C 
BRANCH  47  49
HETATM   49  N   UNL     1      40.648  63.674  31.551  1.00  0.00    -0.334 N 
HETATM   50  C   UNL     1      40.834  62.771  30.487  1.00  0.00     0.210 A 
HETATM   51  N   UNL     1      41.405  61.697  30.879  1.00  0.00    -0.254 NA
HETATM   52  C   UNL     1      41.641  61.851  32.264  1.00  0.00     0.150 A 
HETATM   53  C   UNL     1      41.200  63.035  32.679  1.00  0.00     0.082 A 
ENDBRANCH  47  49
ENDBRANCH  46  47
ENDBRANCH  45  46
BRANCH  45  54
HETATM   54  N   UNL     1      38.968  67.617  29.247  1.00  0.00    -0.339 N 
HETATM   55  C   UNL     1      38.978  67.763  27.902  1.00  0.00     0.209 A 
HETATM   56  N   UNL     1      39.590  68.897  27.506  1.00  0.00    -0.254 NA
HETATM   57  C   UNL     1      39.977  69.495  28.645  1.00  0.00     0.142 A 
HETATM   58  C   UNL     1      39.596  68.716  29.719  1.00  0.00     0.026 A 
HETATM   59  C   UNL     1      39.859  69.083  31.146  1.00  0.00     0.070 C 
ENDBRANCH  45  54
ENDBRANCH  44  45
ENDBRANCH  43  44
BRANCH  43  60
HETATM   60  N   UNL     1      35.436  65.764  31.254  1.00  0.00    -0.345 N 
HETATM   61  C   UNL     1      34.614  65.912  32.314  1.00  0.00     0.209 A 
HETATM   62  N   UNL     1      34.466  64.768  33.009  1.00  0.00    -0.255 NA
HETATM   63  C   UNL     1      35.214  63.862  32.348  1.00  0.00     0.135 A 
HETATM   64  C   UNL     1      35.802  64.467  31.260  1.00  0.00     0.111 A 
ENDBRANCH  43  60
ENDBRANCH  42  43
ENDBRANCH  41  42
BRANCH  41  65
HETATM   65  N   UNL     1      35.977  70.339  29.497  1.00  0.00    -0.339 N 
HETATM   66  C   UNL     1      35.926  69.882  28.164  1.00  0.00     0.209 A 
HETATM   67  N   UNL     1      36.549  70.770  27.277  1.00  0.00    -0.254 NA
HETATM   68  C   UNL     1      37.112  71.744  28.114  1.00  0.00     0.142 A 
HETATM   69  C   UNL     1      36.836  71.495  29.396  1.00  0.00     0.026 A 
HETATM   70  C   UNL     1      37.487  72.317  30.483  1.00  0.00     0.070 C 
ENDBRANCH  41  65
ENDBRANCH  40  41
ENDBRANCH  39  40
BRANCH  39  71
HETATM   71  N   UNL     1      33.615  71.844  31.410  1.00  0.00    -0.343 N 
HETATM   72  C   UNL     1      34.321  72.116  32.534  1.00  0.00     0.111 A 
HETATM   73  C   UNL     1      34.689  73.441  32.517  1.00  0.00     0.135 A 
HETATM   74  N   UNL     1      34.202  74.018  31.407  1.00  0.00    -0.255 NA
HETATM   75  C   UNL     1      33.546  73.032  30.766  1.00  0.00     0.209 A 
ENDBRANCH  39  71
ENDBRANCH  38  39
ENDBRANCH  37  38
ENDBRANCH  27  37
ENDBRANCH  21  22
ENDBRANCH  11  21
BRANCH  12  76
HETATM   76  O   UNL     1      26.354  68.031  31.576  1.00  0.00    -0.390 OA
HETATM   77  H   UNL     1      26.183  67.660  32.478  1.00  0.00     0.210 HD
ENDBRANCH  12  76
BRANCH  13  78
HETATM   78  O   UNL     1      23.987  68.826  30.394  1.00  0.00    -0.388 OA
HETATM   79  H   UNL     1      24.092  68.327  29.570  1.00  0.00     0.210 HD
ENDBRANCH  13  78
ENDBRANCH   7   8
ENDBRANCH   1   7
BRANCH   2  80
HETATM   80  C   UNL     1      26.225  69.129  24.602  1.00  0.00     0.203 C 
BRANCH  80  81
HETATM   81  O   UNL     1      27.162  68.072  24.691  1.00  0.00    -0.379 OA
BRANCH  81  82
HETATM   82  C   UNL     1      28.133  68.326  25.682  1.00  0.00     0.281 C 
BRANCH  82  83
HETATM   83  C   UNL     1      28.396  67.053  26.427  1.00  0.00     0.313 C 
HETATM   84  O   UNL     1      29.111  67.063  27.416  1.00  0.00    -0.260 OA
BRANCH  83  85
HETATM   85  O   UNL     1      27.851  65.892  26.013  1.00  0.00    -0.148 OA
HETATM   86 Na   UNL     1      26.783  65.771  24.310  1.00  0.00     0.000 Na
ENDBRANCH  83  85
ENDBRANCH  82  83
ENDBRANCH  81  82
ENDBRANCH  80  81
ENDBRANCH   2  80
BRANCH   3  87
HETATM   87  O   UNL     1      24.413  72.375  27.403  1.00  0.00    -0.390 OA
HETATM   88  H   UNL     1      24.303  71.861  28.245  1.00  0.00     0.210 HD
ENDBRANCH   3  87
BRANCH   4  89
HETATM   89  O   UNL     1      22.265  70.416  27.039  1.00  0.00    -0.376 OA
BRANCH  89  90
HETATM   90  C   UNL     1      20.853  70.839  27.162  1.00  0.00     0.194 C 
BRANCH  90  91
HETATM   91  C   UNL     1      19.798  69.665  27.028  1.00  0.00     0.116 C 
BRANCH  91  92
HETATM   92  N   UNL     1      18.862  69.887  25.897  1.00  0.00    -0.343 N 
HETATM   93  C   UNL     1      19.155  70.267  24.634  1.00  0.00     0.111 A 
HETATM   94  C   UNL     1      17.984  70.372  23.922  1.00  0.00     0.135 A 
HETATM   95  N   UNL     1      16.950  70.078  24.730  1.00  0.00    -0.255 NA
HETATM   96  C   UNL     1      17.511  69.794  25.922  1.00  0.00     0.209 A 
ENDBRANCH  91  92
BRANCH  91  97
HETATM   97  C   UNL     1      20.508  68.252  27.057  1.00  0.00     0.053 C 
BRANCH  97  98
HETATM   98  C   UNL     1      19.867  66.982  27.755  1.00  0.00     0.094 C 
BRANCH  98  99
HETATM   99  C   UNL     1      20.739  66.293  28.871  1.00  0.00     0.051 C 
BRANCH  99 100
HETATM  100  C   UNL     1      21.741  65.184  28.408  1.00  0.00     0.094 C 
BRANCH 100 101
HETATM  101  N   UNL     1      23.144  65.593  28.604  1.00  0.00    -0.345 N 
HETATM  102  C   UNL     1      23.981  66.078  27.665  1.00  0.00     0.111 A 
HETATM  103  C   UNL     1      25.205  66.300  28.253  1.00  0.00     0.135 A 
HETATM  104  N   UNL     1      25.143  65.945  29.551  1.00  0.00    -0.255 NA
HETATM  105  C   UNL     1      23.879  65.514  29.732  1.00  0.00     0.209 A 
ENDBRANCH 100 101
BRANCH 100 106
HETATM  106  C   UNL     1      21.559  64.758  26.910  1.00  0.00     0.051 C 
BRANCH 106 107
HETATM  107  C   UNL     1      21.509  63.211  26.769  1.00  0.00     0.094 C 
BRANCH 107 108
HETATM  108  C   UNL     1      21.919  62.376  28.028  1.00  0.00     0.051 C 
BRANCH 108 109
HETATM  109  C   UNL     1      21.769  60.823  28.025  1.00  0.00     0.089 C 
HETATM  110  C   UNL     1      23.036  60.185  28.619  1.00  0.00     0.033 C 
BRANCH 109 111
HETATM  111  N   UNL     1      20.612  60.304  28.736  1.00  0.00    -0.334 N 
HETATM  112  C   UNL     1      19.552  59.510  28.258  1.00  0.00     0.082 A 
HETATM  113  C   UNL     1      18.745  59.302  29.295  1.00  0.00     0.150 A 
HETATM  114  N   UNL     1      19.245  59.948  30.449  1.00  0.00    -0.254 NA
HETATM  115  C   UNL     1      20.327  60.525  30.096  1.00  0.00     0.210 A 
ENDBRANCH 109 111
ENDBRANCH 108 109
ENDBRANCH 107 108
BRANCH 107 116
HETATM  116  N   UNL     1      20.235  62.765  26.206  1.00  0.00    -0.339 N 
HETATM  117  C   UNL     1      20.043  62.173  24.942  1.00  0.00     0.209 A 
HETATM  118  N   UNL     1      18.694  61.817  24.766  1.00  0.00    -0.254 NA
HETATM  119  C   UNL     1      18.070  62.202  25.973  1.00  0.00     0.142 A 
HETATM  120  C   UNL     1      18.951  62.747  26.813  1.00  0.00     0.026 A 
HETATM  121  C   UNL     1      18.590  63.245  28.183  1.00  0.00     0.070 C 
ENDBRANCH 107 116
ENDBRANCH 106 107
ENDBRANCH 100 106
ENDBRANCH  99 100
ENDBRANCH  98  99
BRANCH  98 122
HETATM  122  N   UNL     1      18.401  66.949  27.958  1.00  0.00    -0.339 N 
HETATM  123  C   UNL     1      17.488  67.533  28.892  1.00  0.00     0.026 A 
HETATM  124  C   UNL     1      16.230  67.233  28.565  1.00  0.00     0.142 A 
HETATM  125  C   UNL     1      17.765  68.408  30.056  1.00  0.00     0.070 C 
HETATM  126  N   UNL     1      16.182  66.496  27.372  1.00  0.00    -0.254 NA
HETATM  127  C   UNL     1      17.528  66.385  26.993  1.00  0.00     0.209 A 
ENDBRANCH  98 122
ENDBRANCH  97  98
ENDBRANCH  91  97
ENDBRANCH  90  91
ENDBRANCH  89  90
ENDBRANCH   4  89
BRANCH   5 128
HETATM  128  O   UNL     1      22.147  69.799  23.910  1.00  0.00    -0.348 OA
BRANCH 128 129
HETATM  129  C   UNL     1      22.487  69.018  22.743  1.00  0.00     0.187 C 
HETATM  130  C   UNL     1      21.403  67.964  22.379  1.00  0.00     0.180 C 
HETATM  131  O   UNL     1      21.902  67.076  21.382  1.00  0.00    -0.348 OA
HETATM  132  C   UNL     1      20.995  67.127  23.600  1.00  0.00     0.203 C 
HETATM  133  C   UNL     1      22.245  67.734  20.167  1.00  0.00     0.292 C 
HETATM  134  O   UNL     1      21.063  68.051  19.432  1.00  0.00    -0.348 OA
HETATM  135  C   UNL     1      23.196  68.947  20.382  1.00  0.00     0.204 C 
HETATM  136  C   UNL     1      20.908  67.222  18.274  1.00  0.00     0.187 C 
HETATM  137  C   UNL     1      19.434  66.703  18.132  1.00  0.00     0.176 C 
HETATM  138  C   UNL     1      21.270  67.990  16.990  1.00  0.00     0.180 C 
HETATM  139  O   UNL     1      19.091  66.241  16.814  1.00  0.00    -0.378 OA
HETATM  140  C   UNL     1      19.123  65.614  19.183  1.00  0.00     0.203 C 
HETATM  141  C   UNL     1      20.217  65.830  16.070  1.00  0.00     0.202 C 
HETATM  142  C   UNL     1      21.166  67.020  15.769  1.00  0.00     0.173 C 
HETATM  143  O   UNL     1      17.867  64.984  19.001  1.00  0.00    -0.379 OA
HETATM  144  C   UNL     1      16.793  65.899  19.051  1.00  0.00     0.280 C 
HETATM  145  C   UNL     1      15.543  65.158  19.414  1.00  0.00     0.308 C 
HETATM  146  O   UNL     1      15.174  64.212  18.737  1.00  0.00    -0.261 OA
HETATM  147  O   UNL     1      14.811  65.539  20.478  1.00  0.00    -0.158 OA
HETATM  148 Na   UNL     1      15.311  67.187  21.522  1.00  0.00    -0.020 Na
HETATM  149 Na   UNL     1      15.817  67.804  24.068  1.00  0.00     0.080 Na
HETATM  150  O   UNL     1      16.366  65.929  23.566  1.00  0.00    -0.180 OA
HETATM  151  C   UNL     1      17.663  65.635  23.355  1.00  0.00     0.302 C 
HETATM  152  C   UNL     1      18.700  66.706  23.515  1.00  0.00     0.280 C 
HETATM  153  O   UNL     1      17.979  64.497  23.044  1.00  0.00    -0.261 OA
HETATM  154  O   UNL     1      19.993  66.184  23.261  1.00  0.00    -0.379 OA
HETATM  155  C   UNL     1      22.719  69.895  21.504  1.00  0.00     0.183 C 
BRANCH 142 156
HETATM  156  O   UNL     1      20.798  67.735  14.544  1.00  0.00    -0.391 OA
HETATM  157  H   UNL     1      21.587  68.152  14.163  1.00  0.00     0.210 HD
ENDBRANCH 142 156
BRANCH 138 158
HETATM  158  O   UNL     1      20.455  69.136  16.861  1.00  0.00    -0.390 OA
HETATM  159  H   UNL     1      19.784  68.984  16.150  1.00  0.00     0.210 HD
ENDBRANCH 138 158
BRANCH 135 160
HETATM  160  O   UNL     1      23.455  69.652  19.126  1.00  0.00    -0.388 OA
HETATM  161  H   UNL     1      23.336  70.605  19.260  1.00  0.00     0.210 HD
ENDBRANCH 135 160
BRANCH 155 162
HETATM  162  O   UNL     1      21.543  70.563  21.124  1.00  0.00    -0.390 OA
HETATM  163  H   UNL     1      21.081  70.825  21.963  1.00  0.00     0.210 HD
ENDBRANCH 155 162
ENDBRANCH 128 129
ENDBRANCH   5 128
TORSDOF 61
ENDMDL
MODEL 2
REMARK VINA RESULT:      -6.5      2.034      4.530
REMARK WARNING: 32 MAX_TORS EXCEEDED!!!
REMARK  61 active torsions:
REMARK  status: ('A' for Active; 'I' for Inactive)
REMARK    1  A    between atoms: C_1  and  O_30 
REMARK    2  A    between atoms: C_2  and  C_6 
REMARK    3  A    between atoms: C_3  and  O_9 
REMARK    4  A    between atoms: C_4  and  O_11 
REMARK    5  A    between atoms: C_5  and  O_12 
REMARK    6  A    between atoms: C_6  and  O_7 
REMARK    7  A    between atoms: O_7  and  C_147 
REMARK    8  A    between atoms: O_11  and  C_107 
REMARK    9  A    between atoms: O_12  and  C_20 
REMARK   10  A    between atoms: O_14  and  C_18 
REMARK   11  A    between atoms: O_21  and  C_24 
REMARK   12  A    between atoms: O_26  and  C_29 
REMARK   13  A    between atoms: C_28  and  C_34 
REMARK   14  A    between atoms: O_30  and  C_33 
REMARK   15  A    between atoms: C_31  and  O_53 
REMARK   16  A    between atoms: O_32  and  C_35 
REMARK   17  A    between atoms: C_34  and  O_59 
REMARK   18  A    between atoms: O_37  and  C_41 
REMARK   19  A    between atoms: O_43  and  C_46 
REMARK   20  A    between atoms: O_48  and  C_52 
REMARK   21  A    between atoms: C_50  and  C_57 
REMARK   22  A    between atoms: O_51  and  C_57 
REMARK   23  A    between atoms: O_51  and  C_60 
REMARK   24  A    between atoms: O_53  and  C_56 
REMARK   25  A    between atoms: O_55  and  C_58 
REMARK   26  A    between atoms: O_55  and  C_61 
REMARK   27  A    between atoms: O_59  and  C_142 
REMARK   28  A    between atoms: C_60  and  C_137 
REMARK   29  A    between atoms: C_61  and  C_62 
REMARK   30  A    between atoms: C_62  and  C_63 
REMARK   31  A    between atoms: C_62  and  N_76 
REMARK   32  A    between atoms: C_63  and  C_64 
REMARK   33  A    between atoms: C_64  and  C_65 
REMARK   34  A    between atoms: C_64  and  N_90 
REMARK   35  A    between atoms: C_65  and  C_66 
REMARK   36  A    between atoms: C_66  and  C_67 
REMARK   37  A    between atoms: C_66  and  N_80 
REMARK   38  A    between atoms: C_67  and  C_68 
REMARK   39  A    between atoms: C_68  and  C_69 
REMARK   40  A    between atoms: C_68  and  N_95 
REMARK   41  A    between atoms: C_69  and  C_70 
REMARK   42  A    between atoms: C_70  and  N_85 
REMARK   43  A    between atoms: N_102  and  C_108 
REMARK   44  A    between atoms: C_107  and  C_108 
REMARK   45  A    between atoms: C_108  and  C_115 
REMARK   46  A    between atoms: N_111  and  C_117 
REMARK   47  A    between atoms: C_113  and  C_117 
REMARK   48  A    between atoms: C_113  and  C_119 
REMARK   49  A    between atoms: N_114  and  C_124 
REMARK   50  A    between atoms: C_115  and  C_119 
REMARK   51  A    between atoms: C_117  and  C_121 
REMARK   52  A    between atoms: N_118  and  C_119 
REMARK   53  A    between atoms: C_121  and  C_126 
REMARK   54  A    between atoms: C_124  and  C_125 
REMARK   55  A    between atoms: C_125  and  C_126 
REMARK   56  A    between atoms: C_126  and  N_129 
REMARK   57  A    between atoms: C_137  and  O_139 
REMARK   58  A    between atoms: C_142  and  C_144 
REMARK   59  A    between atoms: O_143  and  C_144 
REMARK   60  A    between atoms: C_147  and  C_149 
REMARK   61  A    between atoms: O_148  and  C_149 
ROOT
HETATM    1  C   UNL     1      25.199  70.467  26.563  1.00  0.00     0.187 C 
HETATM    2  C   UNL     1      25.123  69.144  25.720  1.00  0.00     0.180 C 
HETATM    3  C   UNL     1      24.261  71.567  26.010  1.00  0.00     0.183 C 
HETATM    4  C   UNL     1      22.848  70.988  25.692  1.00  0.00     0.208 C 
HETATM    5  C   UNL     1      23.141  69.867  24.665  1.00  0.00     0.292 C 
HETATM    6  O   UNL     1      23.786  68.788  25.328  1.00  0.00    -0.348 OA
ENDROOT
BRANCH   1   7
HETATM    7  O   UNL     1      24.834  70.199  27.906  1.00  0.00    -0.348 OA
BRANCH   7   8
HETATM    8  C   UNL     1      25.729  70.763  28.868  1.00  0.00     0.292 C 
HETATM    9  O   UNL     1      26.718  71.502  28.181  1.00  0.00    -0.348 OA
HETATM   10  C   UNL     1      27.635  72.183  29.049  1.00  0.00     0.180 C 
HETATM   11  C   UNL     1      27.912  71.461  30.411  1.00  0.00     0.187 C 
HETATM   12  C   UNL     1      27.797  69.956  30.184  1.00  0.00     0.183 C 
HETATM   13  C   UNL     1      26.342  69.631  29.752  1.00  0.00     0.204 C 
BRANCH  10  14
HETATM   14  C   UNL     1      27.218  73.644  29.258  1.00  0.00     0.203 C 
BRANCH  14  15
HETATM   15  O   UNL     1      26.568  73.769  30.504  1.00  0.00    -0.379 OA
BRANCH  15  16
HETATM   16  C   UNL     1      25.460  74.632  30.375  1.00  0.00     0.281 C 
BRANCH  16  17
HETATM   17  C   UNL     1      24.220  73.803  30.260  1.00  0.00     0.313 C 
HETATM   18  O   UNL     1      23.411  74.018  29.371  1.00  0.00    -0.260 OA
BRANCH  17  19
HETATM   19  O   UNL     1      23.993  72.811  31.142  1.00  0.00    -0.148 OA
HETATM   20 Na   UNL     1      25.547  71.906  32.052  1.00  0.00     0.000 Na
ENDBRANCH  17  19
ENDBRANCH  16  17
ENDBRANCH  15  16
ENDBRANCH  14  15
ENDBRANCH  10  14
BRANCH  11  21
HETATM   21  O   UNL     1      29.227  71.756  30.857  1.00  0.00    -0.348 OA
BRANCH  21  22
HETATM   22  C   UNL     1      29.369  71.845  32.263  1.00  0.00     0.292 C 
HETATM   23  O   UNL     1      29.988  73.096  32.553  1.00  0.00    -0.351 OA
HETATM   24  C   UNL     1      30.498  73.247  33.883  1.00  0.00     0.151 C 
HETATM   25  C   UNL     1      29.994  72.167  34.868  1.00  0.00     0.068 C 
HETATM   26  C   UNL     1      30.294  70.740  34.343  1.00  0.00     0.154 C 
HETATM   27  C   UNL     1      30.223  70.651  32.786  1.00  0.00     0.205 C 
BRANCH  24  28
HETATM   28  C   UNL     1      30.094  74.638  34.392  1.00  0.00     0.200 C 
BRANCH  28  29
HETATM   29  O   UNL     1      31.188  75.522  34.252  1.00  0.00    -0.379 OA
BRANCH  29  30
HETATM   30  C   UNL     1      32.325  74.989  34.900  1.00  0.00     0.281 C 
BRANCH  30  31
HETATM   31  C   UNL     1      33.554  75.460  34.185  1.00  0.00     0.313 C 
HETATM   32  O   UNL     1      34.578  74.795  34.216  1.00  0.00    -0.260 OA
BRANCH  31  33
HETATM   33  O   UNL     1      33.536  76.621  33.503  1.00  0.00    -0.148 OA
HETATM   34 Na   UNL     1      31.891  77.782  33.499  1.00  0.00     0.000 Na
ENDBRANCH  31  33
ENDBRANCH  30  31
ENDBRANCH  29  30
ENDBRANCH  28  29
ENDBRANCH  24  28
BRANCH  26  35
HETATM   35  O   UNL     1      31.506  70.220  34.837  1.00  0.00    -0.393 OA
HETATM   36  H   UNL     1      32.252  70.641  34.334  1.00  0.00     0.210 HD
ENDBRANCH  26  35
BRANCH  27  37
HETATM   37  O   UNL     1      31.595  70.622  32.218  1.00  0.00    -0.376 OA
BRANCH  37  38
HETATM   38  C   UNL     1      31.900  69.503  31.304  1.00  0.00     0.194 C 
BRANCH  38  39
HETATM   39  C   UNL     1      32.845  69.921  30.135  1.00  0.00     0.116 C 
BRANCH  39  40
HETATM   40  C   UNL     1      33.897  70.965  30.696  1.00  0.00     0.053 C 
BRANCH  40  41
HETATM   41  C   UNL     1      35.401  70.566  30.912  1.00  0.00     0.094 C 
BRANCH  41  42
HETATM   42  C   UNL     1      35.476  69.004  31.199  1.00  0.00     0.051 C 
BRANCH  42  43
HETATM   43  C   UNL     1      35.587  68.374  32.633  1.00  0.00     0.094 C 
BRANCH  43  44
HETATM   44  C   UNL     1      36.051  66.883  32.561  1.00  0.00     0.051 C 
BRANCH  44  45
HETATM   45  C   UNL     1      35.041  65.995  31.792  1.00  0.00     0.094 C 
BRANCH  45  46
HETATM   46  C   UNL     1      35.612  65.174  30.590  1.00  0.00     0.051 C 
BRANCH  46  47
HETATM   47  C   UNL     1      35.606  65.769  29.149  1.00  0.00     0.089 C 
HETATM   48  C   UNL     1      34.429  66.746  29.000  1.00  0.00     0.033 C 
BRANCH  47  49
HETATM   49  N   UNL     1      36.829  66.461  28.775  1.00  0.00    -0.334 N 
HETATM   50  C   UNL     1      36.908  67.592  27.941  1.00  0.00     0.210 A 
HETATM   51  N   UNL     1      38.108  68.017  27.839  1.00  0.00    -0.254 NA
HETATM   52  C   UNL     1      38.904  67.163  28.637  1.00  0.00     0.150 A 
HETATM   53  C   UNL     1      38.149  66.231  29.212  1.00  0.00     0.082 A 
ENDBRANCH  47  49
ENDBRANCH  46  47
ENDBRANCH  45  46
BRANCH  45  54
HETATM   54  N   UNL     1      34.337  65.116  32.764  1.00  0.00    -0.339 N 
HETATM   55  C   UNL     1      34.727  63.872  33.126  1.00  0.00     0.209 A 
HETATM   56  N   UNL     1      33.919  63.324  34.056  1.00  0.00    -0.254 NA
HETATM   57  C   UNL     1      32.984  64.258  34.294  1.00  0.00     0.142 A 
HETATM   58  C   UNL     1      33.235  65.363  33.506  1.00  0.00     0.026 A 
HETATM   59  C   UNL     1      32.395  66.602  33.519  1.00  0.00     0.070 C 
ENDBRANCH  45  54
ENDBRANCH  44  45
ENDBRANCH  43  44
BRANCH  43  60
HETATM   60  N   UNL     1      36.560  69.096  33.472  1.00  0.00    -0.345 N 
HETATM   61  C   UNL     1      36.285  69.929  34.498  1.00  0.00     0.209 A 
HETATM   62  N   UNL     1      37.401  70.390  35.094  1.00  0.00    -0.255 NA
HETATM   63  C   UNL     1      38.417  69.811  34.423  1.00  0.00     0.135 A 
HETATM   64  C   UNL     1      37.904  69.004  33.433  1.00  0.00     0.111 A 
ENDBRANCH  43  60
ENDBRANCH  42  43
ENDBRANCH  41  42
BRANCH  41  65
HETATM   65  N   UNL     1      36.343  71.140  29.926  1.00  0.00    -0.339 N 
HETATM   66  C   UNL     1      37.366  72.048  30.271  1.00  0.00     0.209 A 
HETATM   67  N   UNL     1      38.037  72.538  29.143  1.00  0.00    -0.254 NA
HETATM   68  C   UNL     1      37.317  72.009  28.063  1.00  0.00     0.142 A 
HETATM   69  C   UNL     1      36.313  71.238  28.486  1.00  0.00     0.026 A 
HETATM   70  C   UNL     1      35.301  70.706  27.499  1.00  0.00     0.070 C 
ENDBRANCH  41  65
ENDBRANCH  40  41
ENDBRANCH  39  40
BRANCH  39  71
HETATM   71  N   UNL     1      32.112  70.309  28.898  1.00  0.00    -0.343 N 
HETATM   72  C   UNL     1      31.602  71.514  28.548  1.00  0.00     0.111 A 
HETATM   73  C   UNL     1      30.978  71.394  27.329  1.00  0.00     0.135 A 
HETATM   74  N   UNL     1      31.064  70.119  26.915  1.00  0.00    -0.255 NA
HETATM   75  C   UNL     1      31.742  69.486  27.890  1.00  0.00     0.209 A 
ENDBRANCH  39  71
ENDBRANCH  38  39
ENDBRANCH  37  38
ENDBRANCH  27  37
ENDBRANCH  21  22
ENDBRANCH  11  21
BRANCH  12  76
HETATM   76  O   UNL     1      28.765  69.523  29.250  1.00  0.00    -0.390 OA
HETATM   77  H   UNL     1      28.455  68.692  28.810  1.00  0.00     0.210 HD
ENDBRANCH  12  76
BRANCH  13  78
HETATM   78  O   UNL     1      26.283  68.317  29.126  1.00  0.00    -0.388 OA
HETATM   79  H   UNL     1      26.863  67.704  29.604  1.00  0.00     0.210 HD
ENDBRANCH  13  78
ENDBRANCH   7   8
ENDBRANCH   1   7
BRANCH   2  80
HETATM   80  C   UNL     1      26.109  69.137  24.523  1.00  0.00     0.203 C 
BRANCH  80  81
HETATM   81  O   UNL     1      27.313  68.482  24.875  1.00  0.00    -0.379 OA
BRANCH  81  82
HETATM   82  C   UNL     1      27.081  67.142  25.251  1.00  0.00     0.281 C 
BRANCH  82  83
HETATM   83  C   UNL     1      27.964  66.817  26.417  1.00  0.00     0.313 C 
HETATM   84  O   UNL     1      28.212  65.652  26.686  1.00  0.00    -0.260 OA
BRANCH  83  85
HETATM   85  O   UNL     1      28.487  67.799  27.176  1.00  0.00    -0.148 OA
HETATM   86 Na   UNL     1      29.745  67.404  28.699  1.00  0.00     0.000 Na
ENDBRANCH  83  85
ENDBRANCH  82  83
ENDBRANCH  81  82
ENDBRANCH  80  81
ENDBRANCH   2  80
BRANCH   3  87
HETATM   87  O   UNL     1      24.192  72.644  26.909  1.00  0.00    -0.390 OA
HETATM   88  H   UNL     1      24.486  72.300  27.792  1.00  0.00     0.210 HD
ENDBRANCH   3  87
BRANCH   4  89
HETATM   89  O   UNL     1      22.171  70.523  26.941  1.00  0.00    -0.376 OA
BRANCH  89  90
HETATM   90  C   UNL     1      20.702  70.693  26.985  1.00  0.00     0.194 C 
BRANCH  90  91
HETATM   91  C   UNL     1      19.891  69.356  27.236  1.00  0.00     0.116 C 
BRANCH  91  92
HETATM   92  N   UNL     1      18.538  69.406  26.627  1.00  0.00    -0.343 N 
HETATM   93  C   UNL     1      17.339  69.370  27.252  1.00  0.00     0.111 A 
HETATM   94  C   UNL     1      16.346  69.419  26.303  1.00  0.00     0.135 A 
HETATM   95  N   UNL     1      16.906  69.470  25.082  1.00  0.00    -0.255 NA
HETATM   96  C   UNL     1      18.235  69.454  25.308  1.00  0.00     0.209 A 
ENDBRANCH  91  92
BRANCH  91  97
HETATM   97  C   UNL     1      20.756  68.084  26.868  1.00  0.00     0.053 C 
BRANCH  97  98
HETATM   98  C   UNL     1      21.368  67.115  27.962  1.00  0.00     0.094 C 
BRANCH  98  99
HETATM   99  C   UNL     1      22.394  66.040  27.438  1.00  0.00     0.051 C 
BRANCH  99 100
HETATM  100  C   UNL     1      22.099  64.544  27.788  1.00  0.00     0.094 C 
BRANCH 100 101
HETATM  101  N   UNL     1      20.799  64.100  27.252  1.00  0.00    -0.345 N 
HETATM  102  C   UNL     1      19.762  63.607  27.959  1.00  0.00     0.111 A 
HETATM  103  C   UNL     1      18.758  63.280  27.076  1.00  0.00     0.135 A 
HETATM  104  N   UNL     1      19.165  63.552  25.821  1.00  0.00    -0.255 NA
HETATM  105  C   UNL     1      20.412  64.044  25.961  1.00  0.00     0.209 A 
ENDBRANCH 100 101
BRANCH 100 106
HETATM  106  C   UNL     1      22.125  64.242  29.327  1.00  0.00     0.051 C 
BRANCH 106 107
HETATM  107  C   UNL     1      23.177  63.150  29.665  1.00  0.00     0.094 C 
BRANCH 107 108
HETATM  108  C   UNL     1      24.171  63.467  30.831  1.00  0.00     0.051 C 
BRANCH 108 109
HETATM  109  C   UNL     1      24.471  64.945  31.228  1.00  0.00     0.089 C 
HETATM  110  C   UNL     1      24.075  65.171  32.698  1.00  0.00     0.033 C 
BRANCH 109 111
HETATM  111  N   UNL     1      25.848  65.377  31.049  1.00  0.00    -0.334 N 
HETATM  112  C   UNL     1      26.808  64.936  30.119  1.00  0.00     0.082 A 
HETATM  113  C   UNL     1      27.913  65.637  30.363  1.00  0.00     0.150 A 
HETATM  114  N   UNL     1      27.706  66.527  31.443  1.00  0.00    -0.254 NA
HETATM  115  C   UNL     1      26.501  66.353  31.825  1.00  0.00     0.210 A 
ENDBRANCH 109 111
ENDBRANCH 108 109
ENDBRANCH 107 108
BRANCH 107 116
HETATM  116  N   UNL     1      22.554  61.835  29.817  1.00  0.00    -0.339 N 
HETATM  117  C   UNL     1      22.000  61.305  31.000  1.00  0.00     0.209 A 
HETATM  118  N   UNL     1      21.434  60.042  30.754  1.00  0.00    -0.254 NA
HETATM  119  C   UNL     1      21.653  59.821  29.376  1.00  0.00     0.142 A 
HETATM  120  C   UNL     1      22.295  60.853  28.825  1.00  0.00     0.026 A 
HETATM  121  C   UNL     1      22.661  60.917  27.369  1.00  0.00     0.070 C 
ENDBRANCH 107 116
ENDBRANCH 106 107
ENDBRANCH 100 106
ENDBRANCH  99 100
ENDBRANCH  98  99
BRANCH  98 122
HETATM  122  N   UNL     1      21.616  67.646  29.321  1.00  0.00    -0.339 N 
HETATM  123  C   UNL     1      20.839  67.802  30.513  1.00  0.00     0.026 A 
HETATM  124  C   UNL     1      21.595  68.278  31.504  1.00  0.00     0.142 A 
HETATM  125  C   UNL     1      19.416  67.465  30.758  1.00  0.00     0.070 C 
HETATM  126  N   UNL     1      22.930  68.418  31.096  1.00  0.00    -0.254 NA
HETATM  127  C   UNL     1      22.923  67.969  29.767  1.00  0.00     0.209 A 
ENDBRANCH  98 122
ENDBRANCH  97  98
ENDBRANCH  91  97
ENDBRANCH  90  91
ENDBRANCH  89  90
ENDBRANCH   4  89
BRANCH   5 128
HETATM  128  O   UNL     1      21.971  69.442  23.945  1.00  0.00    -0.348 OA
BRANCH 128 129
HETATM  129  C   UNL     1      22.331  68.716  22.750  1.00  0.00     0.187 C 
HETATM  130  C   UNL     1      21.246  67.692  22.309  1.00  0.00     0.180 C 
HETATM  131  O   UNL     1      21.761  66.849  21.281  1.00  0.00    -0.348 OA
HETATM  132  C   UNL     1      20.802  66.801  23.477  1.00  0.00     0.203 C 
HETATM  133  C   UNL     1      22.139  67.562  20.109  1.00  0.00     0.292 C 
HETATM  134  O   UNL     1      20.977  67.927  19.363  1.00  0.00    -0.348 OA
HETATM  135  C   UNL     1      23.095  68.753  20.405  1.00  0.00     0.204 C 
HETATM  136  C   UNL     1      20.843  67.158  18.161  1.00  0.00     0.187 C 
HETATM  137  C   UNL     1      19.368  66.661  17.960  1.00  0.00     0.176 C 
HETATM  138  C   UNL     1      21.242  67.984  16.926  1.00  0.00     0.180 C 
HETATM  139  O   UNL     1      19.052  66.268  16.613  1.00  0.00    -0.378 OA
HETATM  140  C   UNL     1      19.022  65.526  18.948  1.00  0.00     0.203 C 
HETATM  141  C   UNL     1      20.192  65.882  15.876  1.00  0.00     0.202 C 
HETATM  142  C   UNL     1      21.158  67.076  15.657  1.00  0.00     0.173 C 
HETATM  143  O   UNL     1      17.764  64.918  18.707  1.00  0.00    -0.379 OA
HETATM  144  C   UNL     1      16.698  65.840  18.777  1.00  0.00     0.280 C 
HETATM  145  C   UNL     1      15.433  65.096  19.074  1.00  0.00     0.308 C 
HETATM  146  O   UNL     1      15.072  64.188  18.342  1.00  0.00    -0.261 OA
HETATM  147  O   UNL     1      14.680  65.431  20.137  1.00  0.00    -0.158 OA
HETATM  148 Na   UNL     1      15.170  67.021  21.273  1.00  0.00    -0.020 Na
HETATM  149 Na   UNL     1      15.620  67.507  23.858  1.00  0.00     0.080 Na
HETATM  150  O   UNL     1      16.164  65.654  23.276  1.00  0.00    -0.180 OA
HETATM  151  C   UNL     1      17.463  65.357  23.081  1.00  0.00     0.302 C 
HETATM  152  C   UNL     1      18.506  66.408  23.318  1.00  0.00     0.280 C 
HETATM  153  O   UNL     1      17.776  64.232  22.722  1.00  0.00    -0.261 OA
HETATM  154  O   UNL     1      19.800  65.885  23.069  1.00  0.00    -0.379 OA
HETATM  155  C   UNL     1      22.601  69.650  21.560  1.00  0.00     0.183 C 
BRANCH 142 156
HETATM  156  O   UNL     1      20.826  67.854  14.459  1.00  0.00    -0.391 OA
HETATM  157  H   UNL     1      20.148  68.512  14.678  1.00  0.00     0.210 HD
ENDBRANCH 142 156
BRANCH 138 158
HETATM  158  O   UNL     1      20.441  69.143  16.835  1.00  0.00    -0.390 OA
HETATM  159  H   UNL     1      20.013  69.318  17.710  1.00  0.00     0.210 HD
ENDBRANCH 138 158
BRANCH 135 160
HETATM  160  O   UNL     1      23.391  69.516  19.192  1.00  0.00    -0.388 OA
HETATM  161  H   UNL     1      23.077  70.428  19.298  1.00  0.00     0.210 HD
ENDBRANCH 135 160
BRANCH 155 162
HETATM  162  O   UNL     1      21.440  70.348  21.187  1.00  0.00    -0.390 OA
HETATM  163  H   UNL     1      21.341  70.231  20.207  1.00  0.00     0.210 HD
ENDBRANCH 155 162
ENDBRANCH 128 129
ENDBRANCH   5 128
TORSDOF 61
ENDMDL
MODEL 3
REMARK VINA RESULT:      -6.4      2.590      6.193
REMARK WARNING: 32 MAX_TORS EXCEEDED!!!
REMARK  61 active torsions:
REMARK  status: ('A' for Active; 'I' for Inactive)
REMARK    1  A    between atoms: C_1  and  O_30 
REMARK    2  A    between atoms: C_2  and  C_6 
REMARK    3  A    between atoms: C_3  and  O_9 
REMARK    4  A    between atoms: C_4  and  O_11 
REMARK    5  A    between atoms: C_5  and  O_12 
REMARK    6  A    between atoms: C_6  and  O_7 
REMARK    7  A    between atoms: O_7  and  C_147 
REMARK    8  A    between atoms: O_11  and  C_107 
REMARK    9  A    between atoms: O_12  and  C_20 
REMARK   10  A    between atoms: O_14  and  C_18 
REMARK   11  A    between atoms: O_21  and  C_24 
REMARK   12  A    between atoms: O_26  and  C_29 
REMARK   13  A    between atoms: C_28  and  C_34 
REMARK   14  A    between atoms: O_30  and  C_33 
REMARK   15  A    between atoms: C_31  and  O_53 
REMARK   16  A    between atoms: O_32  and  C_35 
REMARK   17  A    between atoms: C_34  and  O_59 
REMARK   18  A    between atoms: O_37  and  C_41 
REMARK   19  A    between atoms: O_43  and  C_46 
REMARK   20  A    between atoms: O_48  and  C_52 
REMARK   21  A    between atoms: C_50  and  C_57 
REMARK   22  A    between atoms: O_51  and  C_57 
REMARK   23  A    between atoms: O_51  and  C_60 
REMARK   24  A    between atoms: O_53  and  C_56 
REMARK   25  A    between atoms: O_55  and  C_58 
REMARK   26  A    between atoms: O_55  and  C_61 
REMARK   27  A    between atoms: O_59  and  C_142 
REMARK   28  A    between atoms: C_60  and  C_137 
REMARK   29  A    between atoms: C_61  and  C_62 
REMARK   30  A    between atoms: C_62  and  C_63 
REMARK   31  A    between atoms: C_62  and  N_76 
REMARK   32  A    between atoms: C_63  and  C_64 
REMARK   33  A    between atoms: C_64  and  C_65 
REMARK   34  A    between atoms: C_64  and  N_90 
REMARK   35  A    between atoms: C_65  and  C_66 
REMARK   36  A    between atoms: C_66  and  C_67 
REMARK   37  A    between atoms: C_66  and  N_80 
REMARK   38  A    between atoms: C_67  and  C_68 
REMARK   39  A    between atoms: C_68  and  C_69 
REMARK   40  A    between atoms: C_68  and  N_95 
REMARK   41  A    between atoms: C_69  and  C_70 
REMARK   42  A    between atoms: C_70  and  N_85 
REMARK   43  A    between atoms: N_102  and  C_108 
REMARK   44  A    between atoms: C_107  and  C_108 
REMARK   45  A    between atoms: C_108  and  C_115 
REMARK   46  A    between atoms: N_111  and  C_117 
REMARK   47  A    between atoms: C_113  and  C_117 
REMARK   48  A    between atoms: C_113  and  C_119 
REMARK   49  A    between atoms: N_114  and  C_124 
REMARK   50  A    between atoms: C_115  and  C_119 
REMARK   51  A    between atoms: C_117  and  C_121 
REMARK   52  A    between atoms: N_118  and  C_119 
REMARK   53  A    between atoms: C_121  and  C_126 
REMARK   54  A    between atoms: C_124  and  C_125 
REMARK   55  A    between atoms: C_125  and  C_126 
REMARK   56  A    between atoms: C_126  and  N_129 
REMARK   57  A    between atoms: C_137  and  O_139 
REMARK   58  A    between atoms: C_142  and  C_144 
REMARK   59  A    between atoms: O_143  and  C_144 
REMARK   60  A    between atoms: C_147  and  C_149 
REMARK   61  A    between atoms: O_148  and  C_149 
ROOT
HETATM    1  C   UNL     1      25.478  69.853  26.880  1.00  0.00     0.187 C 
HETATM    2  C   UNL     1      25.276  68.744  25.786  1.00  0.00     0.180 C 
HETATM    3  C   UNL     1      24.784  71.183  26.500  1.00  0.00     0.183 C 
HETATM    4  C   UNL     1      23.335  70.928  25.983  1.00  0.00     0.208 C 
HETATM    5  C   UNL     1      23.544  69.984  24.773  1.00  0.00     0.292 C 
HETATM    6  O   UNL     1      23.944  68.706  25.246  1.00  0.00    -0.348 OA
ENDROOT
BRANCH   1   7
HETATM    7  O   UNL     1      24.947  69.407  28.116  1.00  0.00    -0.348 OA
BRANCH   7   8
HETATM    8  C   UNL     1      25.838  69.582  29.221  1.00  0.00     0.292 C 
HETATM    9  O   UNL     1      27.045  70.137  28.739  1.00  0.00    -0.348 OA
HETATM   10  C   UNL     1      27.996  70.432  29.773  1.00  0.00     0.180 C 
HETATM   11  C   UNL     1      27.939  69.476  31.012  1.00  0.00     0.187 C 
HETATM   12  C   UNL     1      27.494  68.097  30.529  1.00  0.00     0.183 C 
HETATM   13  C   UNL     1      26.062  68.217  29.945  1.00  0.00     0.204 C 
BRANCH  10  14
HETATM   14  C   UNL     1      27.918  71.906  30.191  1.00  0.00     0.203 C 
BRANCH  14  15
HETATM   15  O   UNL     1      27.185  72.626  29.225  1.00  0.00    -0.379 OA
BRANCH  15  16
HETATM   16  C   UNL     1      27.155  73.992  29.575  1.00  0.00     0.281 C 
BRANCH  16  17
HETATM   17  C   UNL     1      25.880  74.271  30.306  1.00  0.00     0.313 C 
HETATM   18  O   UNL     1      25.851  75.087  31.213  1.00  0.00    -0.260 OA
BRANCH  17  19
HETATM   19  O   UNL     1      24.754  73.617  29.961  1.00  0.00    -0.148 OA
HETATM   20 Na   UNL     1      23.769  74.138  28.281  1.00  0.00     0.000 Na
ENDBRANCH  17  19
ENDBRANCH  16  17
ENDBRANCH  15  16
ENDBRANCH  14  15
ENDBRANCH  10  14
BRANCH  11  21
HETATM   21  O   UNL     1      29.228  69.362  31.594  1.00  0.00    -0.348 OA
BRANCH  21  22
HETATM   22  C   UNL     1      29.841  70.595  31.923  1.00  0.00     0.292 C 
HETATM   23  O   UNL     1      31.007  70.723  31.112  1.00  0.00    -0.351 OA
HETATM   24  C   UNL     1      31.930  71.746  31.504  1.00  0.00     0.151 C 
HETATM   25  C   UNL     1      31.348  72.750  32.525  1.00  0.00     0.068 C 
HETATM   26  C   UNL     1      30.797  72.025  33.778  1.00  0.00     0.154 C 
HETATM   27  C   UNL     1      30.195  70.625  33.440  1.00  0.00     0.205 C 
BRANCH  24  28
HETATM   28  C   UNL     1      32.374  72.496  30.240  1.00  0.00     0.200 C 
BRANCH  28  29
HETATM   29  O   UNL     1      31.369  72.383  29.253  1.00  0.00    -0.379 OA
BRANCH  29  30
HETATM   30  C   UNL     1      31.709  71.366  28.333  1.00  0.00     0.281 C 
BRANCH  30  31
HETATM   31  C   UNL     1      30.724  71.387  27.203  1.00  0.00     0.313 C 
HETATM   32  O   UNL     1      30.779  70.543  26.323  1.00  0.00    -0.260 OA
BRANCH  31  33
HETATM   33  O   UNL     1      29.771  72.337  27.155  1.00  0.00    -0.148 OA
HETATM   34 Na   UNL     1      27.826  71.832  27.034  1.00  0.00     0.000 Na
ENDBRANCH  31  33
ENDBRANCH  30  31
ENDBRANCH  29  30
ENDBRANCH  28  29
ENDBRANCH  24  28
BRANCH  26  35
HETATM   35  O   UNL     1      31.740  71.944  34.822  1.00  0.00    -0.393 OA
HETATM   36  H   UNL     1      31.649  72.756  35.387  1.00  0.00     0.210 HD
ENDBRANCH  26  35
BRANCH  27  37
HETATM   37  O   UNL     1      31.145  69.556  33.838  1.00  0.00    -0.376 OA
BRANCH  37  38
HETATM   38  C   UNL     1      30.551  68.345  34.443  1.00  0.00     0.194 C 
BRANCH  38  39
HETATM   39  C   UNL     1      30.921  67.043  33.668  1.00  0.00     0.116 C 
BRANCH  39  40
HETATM   40  C   UNL     1      31.955  67.419  32.528  1.00  0.00     0.053 C 
BRANCH  40  41
HETATM   41  C   UNL     1      33.128  66.446  32.142  1.00  0.00     0.094 C 
BRANCH  41  42
HETATM   42  C   UNL     1      33.826  66.991  30.823  1.00  0.00     0.051 C 
BRANCH  42  43
HETATM   43  C   UNL     1      35.354  67.334  30.708  1.00  0.00     0.094 C 
BRANCH  43  44
HETATM   44  C   UNL     1      35.778  67.537  29.218  1.00  0.00     0.051 C 
BRANCH  44  45
HETATM   45  C   UNL     1      37.195  68.151  29.094  1.00  0.00     0.094 C 
BRANCH  45  46
HETATM   46  C   UNL     1      38.251  67.310  28.305  1.00  0.00     0.051 C 
BRANCH  46  47
HETATM   47  C   UNL     1      39.620  66.946  28.956  1.00  0.00     0.089 C 
HETATM   48  C   UNL     1      39.800  67.740  30.259  1.00  0.00     0.033 C 
BRANCH  47  49
HETATM   49  N   UNL     1      39.792  65.532  29.252  1.00  0.00    -0.334 N 
HETATM   50  C   UNL     1      40.428  64.592  28.419  1.00  0.00     0.210 A 
HETATM   51  N   UNL     1      40.480  63.440  28.967  1.00  0.00    -0.254 NA
HETATM   52  C   UNL     1      39.872  63.572  30.236  1.00  0.00     0.150 A 
HETATM   53  C   UNL     1      39.462  64.823  30.424  1.00  0.00     0.082 A 
ENDBRANCH  47  49
ENDBRANCH  46  47
ENDBRANCH  45  46
BRANCH  45  54
HETATM   54  N   UNL     1      37.076  69.528  28.542  1.00  0.00    -0.339 N 
HETATM   55  C   UNL     1      38.084  70.426  28.441  1.00  0.00     0.209 A 
HETATM   56  N   UNL     1      37.695  71.581  27.864  1.00  0.00    -0.254 NA
HETATM   57  C   UNL     1      36.393  71.405  27.584  1.00  0.00     0.142 A 
HETATM   58  C   UNL     1      36.006  70.145  27.995  1.00  0.00     0.026 A 
HETATM   59  C   UNL     1      34.619  69.608  27.831  1.00  0.00     0.070 C 
ENDBRANCH  45  54
ENDBRANCH  44  45
ENDBRANCH  43  44
BRANCH  43  60
HETATM   60  N   UNL     1      35.691  68.573  31.433  1.00  0.00    -0.345 N 
HETATM   61  C   UNL     1      34.937  69.688  31.525  1.00  0.00     0.209 A 
HETATM   62  N   UNL     1      35.508  70.627  32.303  1.00  0.00    -0.255 NA
HETATM   63  C   UNL     1      36.660  70.071  32.727  1.00  0.00     0.135 A 
HETATM   64  C   UNL     1      36.771  68.803  32.204  1.00  0.00     0.111 A 
ENDBRANCH  43  60
ENDBRANCH  42  43
ENDBRANCH  41  42
BRANCH  41  65
HETATM   65  N   UNL     1      33.991  66.037  33.271  1.00  0.00    -0.339 N 
HETATM   66  C   UNL     1      34.258  64.690  33.593  1.00  0.00     0.209 A 
HETATM   67  N   UNL     1      34.998  64.567  34.776  1.00  0.00    -0.254 NA
HETATM   68  C   UNL     1      35.079  65.879  35.263  1.00  0.00     0.142 A 
HETATM   69  C   UNL     1      34.470  66.736  34.440  1.00  0.00     0.026 A 
HETATM   70  C   UNL     1      34.283  68.177  34.853  1.00  0.00     0.070 C 
ENDBRANCH  41  65
ENDBRANCH  40  41
ENDBRANCH  39  40
BRANCH  39  71
HETATM   71  N   UNL     1      29.732  66.248  33.256  1.00  0.00    -0.343 N 
HETATM   72  C   UNL     1      29.655  65.211  32.387  1.00  0.00     0.111 A 
HETATM   73  C   UNL     1      28.343  64.809  32.292  1.00  0.00     0.135 A 
HETATM   74  N   UNL     1      27.584  65.596  33.071  1.00  0.00    -0.255 NA
HETATM   75  C   UNL     1      28.449  66.463  33.630  1.00  0.00     0.209 A 
ENDBRANCH  39  71
ENDBRANCH  38  39
ENDBRANCH  37  38
ENDBRANCH  27  37
ENDBRANCH  21  22
ENDBRANCH  11  21
BRANCH  12  76
HETATM   76  O   UNL     1      28.429  67.573  29.609  1.00  0.00    -0.390 OA
HETATM   77  H   UNL     1      29.272  68.092  29.659  1.00  0.00     0.210 HD
ENDBRANCH  12  76
BRANCH  13  78
HETATM   78  O   UNL     1      25.761  67.064  29.107  1.00  0.00    -0.388 OA
HETATM   79  H   UNL     1      24.799  66.966  29.025  1.00  0.00     0.210 HD
ENDBRANCH  13  78
ENDBRANCH   7   8
ENDBRANCH   1   7
BRANCH   2  80
HETATM   80  C   UNL     1      26.360  68.789  24.677  1.00  0.00     0.203 C 
BRANCH  80  81
HETATM   81  O   UNL     1      27.364  67.823  24.925  1.00  0.00    -0.379 OA
BRANCH  81  82
HETATM   82  C   UNL     1      26.838  66.686  25.573  1.00  0.00     0.281 C 
BRANCH  82  83
HETATM   83  C   UNL     1      27.904  66.105  26.451  1.00  0.00     0.313 C 
HETATM   84  O   UNL     1      27.805  64.955  26.849  1.00  0.00    -0.260 OA
BRANCH  83  85
HETATM   85  O   UNL     1      28.975  66.841  26.808  1.00  0.00    -0.148 OA
HETATM   86 Na   UNL     1      29.526  68.480  25.775  1.00  0.00     0.000 Na
ENDBRANCH  83  85
ENDBRANCH  82  83
ENDBRANCH  81  82
ENDBRANCH  80  81
ENDBRANCH   2  80
BRANCH   3  87
HETATM   87  O   UNL     1      24.799  72.069  27.590  1.00  0.00    -0.390 OA
HETATM   88  H   UNL     1      23.923  72.535  27.593  1.00  0.00     0.210 HD
ENDBRANCH   3  87
BRANCH   4  89
HETATM   89  O   UNL     1      22.475  70.363  27.067  1.00  0.00    -0.376 OA
BRANCH  89  90
HETATM   90  C   UNL     1      21.026  70.297  26.778  1.00  0.00     0.194 C 
BRANCH  90  91
HETATM   91  C   UNL     1      20.292  69.025  27.374  1.00  0.00     0.116 C 
BRANCH  91  92
HETATM   92  N   UNL     1      21.208  68.187  28.187  1.00  0.00    -0.343 N 
HETATM   93  C   UNL     1      21.432  68.244  29.519  1.00  0.00     0.111 A 
HETATM   94  C   UNL     1      22.374  67.300  29.849  1.00  0.00     0.135 A 
HETATM   95  N   UNL     1      22.762  66.656  28.735  1.00  0.00    -0.255 NA
HETATM   96  C   UNL     1      22.044  67.219  27.742  1.00  0.00     0.209 A 
ENDBRANCH  91  92
BRANCH  91  97
HETATM   97  C   UNL     1      18.933  69.426  28.076  1.00  0.00     0.053 C 
BRANCH  97  98
HETATM   98  C   UNL     1      18.430  70.925  28.184  1.00  0.00     0.094 C 
BRANCH  98  99
HETATM   99  C   UNL     1      17.268  71.337  27.204  1.00  0.00     0.051 C 
BRANCH  99 100
HETATM  100  C   UNL     1      17.388  72.731  26.503  1.00  0.00     0.094 C 
BRANCH 100 101
HETATM  101  N   UNL     1      16.730  73.796  27.283  1.00  0.00    -0.345 N 
HETATM  102  C   UNL     1      15.772  73.637  28.217  1.00  0.00     0.111 A 
HETATM  103  C   UNL     1      15.407  74.882  28.675  1.00  0.00     0.135 A 
HETATM  104  N   UNL     1      16.120  75.820  28.023  1.00  0.00    -0.255 NA
HETATM  105  C   UNL     1      16.912  75.129  27.179  1.00  0.00     0.209 A 
ENDBRANCH 100 101
BRANCH 100 106
HETATM  106  C   UNL     1      16.804  72.756  25.048  1.00  0.00     0.051 C 
BRANCH 106 107
HETATM  107  C   UNL     1      15.895  71.522  24.788  1.00  0.00     0.094 C 
BRANCH 107 108
HETATM  108  C   UNL     1      14.352  71.746  24.910  1.00  0.00     0.051 C 
BRANCH 108 109
HETATM  109  C   UNL     1      13.678  72.975  24.225  1.00  0.00     0.089 C 
HETATM  110  C   UNL     1      12.457  72.506  23.416  1.00  0.00     0.033 C 
BRANCH 109 111
HETATM  111  N   UNL     1      13.258  74.041  25.120  1.00  0.00    -0.334 N 
HETATM  112  C   UNL     1      13.748  75.355  25.237  1.00  0.00     0.082 A 
HETATM  113  C   UNL     1      13.036  75.935  26.200  1.00  0.00     0.150 A 
HETATM  114  N   UNL     1      12.089  75.028  26.730  1.00  0.00    -0.254 NA
HETATM  115  C   UNL     1      12.241  73.935  26.088  1.00  0.00     0.210 A 
ENDBRANCH 109 111
ENDBRANCH 108 109
ENDBRANCH 107 108
BRANCH 107 116
HETATM  116  N   UNL     1      16.255  70.846  23.542  1.00  0.00    -0.339 N 
HETATM  117  C   UNL     1      15.375  70.495  22.498  1.00  0.00     0.209 A 
HETATM  118  N   UNL     1      16.085  69.916  21.431  1.00  0.00    -0.254 NA
HETATM  119  C   UNL     1      17.432  69.935  21.855  1.00  0.00     0.142 A 
HETATM  120  C   UNL     1      17.542  70.475  23.070  1.00  0.00     0.026 A 
HETATM  121  C   UNL     1      18.853  70.644  23.785  1.00  0.00     0.070 C 
ENDBRANCH 107 116
ENDBRANCH 106 107
ENDBRANCH 100 106
ENDBRANCH  99 100
ENDBRANCH  98  99
BRANCH  98 122
HETATM  122  N   UNL     1      18.426  71.577  29.512  1.00  0.00    -0.339 N 
HETATM  123  C   UNL     1      17.718  71.385  30.741  1.00  0.00     0.026 A 
HETATM  124  C   UNL     1      18.167  72.223  31.675  1.00  0.00     0.142 A 
HETATM  125  C   UNL     1      16.664  70.396  31.073  1.00  0.00     0.070 C 
HETATM  126  N   UNL     1      19.238  72.990  31.191  1.00  0.00    -0.254 NA
HETATM  127  C   UNL     1      19.410  72.531  29.877  1.00  0.00     0.209 A 
ENDBRANCH  98 122
ENDBRANCH  97  98
ENDBRANCH  91  97
ENDBRANCH  90  91
ENDBRANCH  89  90
ENDBRANCH   4  89
BRANCH   5 128
HETATM  128  O   UNL     1      22.397  69.911  23.908  1.00  0.00    -0.348 OA
BRANCH 128 129
HETATM  129  C   UNL     1      22.659  69.069  22.765  1.00  0.00     0.187 C 
HETATM  130  C   UNL     1      21.523  68.043  22.491  1.00  0.00     0.180 C 
HETATM  131  O   UNL     1      21.948  67.095  21.515  1.00  0.00    -0.348 OA
HETATM  132  C   UNL     1      21.135  67.276  23.762  1.00  0.00     0.203 C 
HETATM  133  C   UNL     1      22.265  67.686  20.260  1.00  0.00     0.292 C 
HETATM  134  O   UNL     1      21.066  68.017  19.559  1.00  0.00    -0.348 OA
HETATM  135  C   UNL     1      23.268  68.870  20.383  1.00  0.00     0.204 C 
HETATM  136  C   UNL     1      20.834  67.147  18.445  1.00  0.00     0.187 C 
HETATM  137  C   UNL     1      19.337  66.680  18.384  1.00  0.00     0.176 C 
HETATM  138  C   UNL     1      21.171  67.844  17.116  1.00  0.00     0.180 C 
HETATM  139  O   UNL     1      18.923  66.176  17.103  1.00  0.00    -0.378 OA
HETATM  140  C   UNL     1      19.029  65.650  19.493  1.00  0.00     0.203 C 
HETATM  141  C   UNL     1      20.002  65.689  16.334  1.00  0.00     0.202 C 
HETATM  142  C   UNL     1      20.981  66.828  15.944  1.00  0.00     0.173 C 
HETATM  143  O   UNL     1      17.743  65.062  19.390  1.00  0.00    -0.379 OA
HETATM  144  C   UNL     1      16.707  66.019  19.441  1.00  0.00     0.280 C 
HETATM  145  C   UNL     1      15.446  65.343  19.886  1.00  0.00     0.308 C 
HETATM  146  O   UNL     1      15.015  64.385  19.265  1.00  0.00    -0.261 OA
HETATM  147  O   UNL     1      14.774  65.798  20.959  1.00  0.00    -0.158 OA
HETATM  148 Na   UNL     1      15.377  67.469  21.909  1.00  0.00    -0.020 Na
HETATM  149 Na   UNL     1      16.008  68.173  24.404  1.00  0.00     0.080 Na
HETATM  150  O   UNL     1      16.467  66.259  23.963  1.00  0.00    -0.180 OA
HETATM  151  C   UNL     1      17.742  65.906  23.715  1.00  0.00     0.302 C 
HETATM  152  C   UNL     1      18.824  66.941  23.786  1.00  0.00     0.280 C 
HETATM  153  O   UNL     1      18.003  64.744  23.443  1.00  0.00    -0.261 OA
HETATM  154  O   UNL     1      20.085  66.359  23.505  1.00  0.00    -0.379 OA
HETATM  155  C   UNL     1      22.873  69.882  21.480  1.00  0.00     0.183 C 
BRANCH 142 156
HETATM  156  O   UNL     1      20.590  67.503  14.703  1.00  0.00    -0.391 OA
HETATM  157  H   UNL     1      20.553  68.461  14.853  1.00  0.00     0.210 HD
ENDBRANCH 142 156
BRANCH 138 158
HETATM  158  O   UNL     1      20.395  69.014  16.968  1.00  0.00    -0.390 OA
HETATM  159  H   UNL     1      19.703  68.865  16.276  1.00  0.00     0.210 HD
ENDBRANCH 138 158
BRANCH 135 160
HETATM  160  O   UNL     1      23.502  69.509  19.089  1.00  0.00    -0.388 OA
HETATM  161  H   UNL     1      24.074  70.284  19.209  1.00  0.00     0.210 HD
ENDBRANCH 135 160
BRANCH 155 162
HETATM  162  O   UNL     1      21.708  70.579  21.118  1.00  0.00    -0.390 OA
HETATM  163  H   UNL     1      21.406  71.068  21.926  1.00  0.00     0.210 HD
ENDBRANCH 155 162
ENDBRANCH 128 129
ENDBRANCH   5 128
TORSDOF 61
ENDMDL
MODEL 4
REMARK VINA RESULT:      -6.2      1.726      3.527
REMARK WARNING: 32 MAX_TORS EXCEEDED!!!
REMARK  61 active torsions:
REMARK  status: ('A' for Active; 'I' for Inactive)
REMARK    1  A    between atoms: C_1  and  O_30 
REMARK    2  A    between atoms: C_2  and  C_6 
REMARK    3  A    between atoms: C_3  and  O_9 
REMARK    4  A    between atoms: C_4  and  O_11 
REMARK    5  A    between atoms: C_5  and  O_12 
REMARK    6  A    between atoms: C_6  and  O_7 
REMARK    7  A    between atoms: O_7  and  C_147 
REMARK    8  A    between atoms: O_11  and  C_107 
REMARK    9  A    between atoms: O_12  and  C_20 
REMARK   10  A    between atoms: O_14  and  C_18 
REMARK   11  A    between atoms: O_21  and  C_24 
REMARK   12  A    between atoms: O_26  and  C_29 
REMARK   13  A    between atoms: C_28  and  C_34 
REMARK   14  A    between atoms: O_30  and  C_33 
REMARK   15  A    between atoms: C_31  and  O_53 
REMARK   16  A    between atoms: O_32  and  C_35 
REMARK   17  A    between atoms: C_34  and  O_59 
REMARK   18  A    between atoms: O_37  and  C_41 
REMARK   19  A    between atoms: O_43  and  C_46 
REMARK   20  A    between atoms: O_48  and  C_52 
REMARK   21  A    between atoms: C_50  and  C_57 
REMARK   22  A    between atoms: O_51  and  C_57 
REMARK   23  A    between atoms: O_51  and  C_60 
REMARK   24  A    between atoms: O_53  and  C_56 
REMARK   25  A    between atoms: O_55  and  C_58 
REMARK   26  A    between atoms: O_55  and  C_61 
REMARK   27  A    between atoms: O_59  and  C_142 
REMARK   28  A    between atoms: C_60  and  C_137 
REMARK   29  A    between atoms: C_61  and  C_62 
REMARK   30  A    between atoms: C_62  and  C_63 
REMARK   31  A    between atoms: C_62  and  N_76 
REMARK   32  A    between atoms: C_63  and  C_64 
REMARK   33  A    between atoms: C_64  and  C_65 
REMARK   34  A    between atoms: C_64  and  N_90 
REMARK   35  A    between atoms: C_65  and  C_66 
REMARK   36  A    between atoms: C_66  and  C_67 
REMARK   37  A    between atoms: C_66  and  N_80 
REMARK   38  A    between atoms: C_67  and  C_68 
REMARK   39  A    between atoms: C_68  and  C_69 
REMARK   40  A    between atoms: C_68  and  N_95 
REMARK   41  A    between atoms: C_69  and  C_70 
REMARK   42  A    between atoms: C_70  and  N_85 
REMARK   43  A    between atoms: N_102  and  C_108 
REMARK   44  A    between atoms: C_107  and  C_108 
REMARK   45  A    between atoms: C_108  and  C_115 
REMARK   46  A    between atoms: N_111  and  C_117 
REMARK   47  A    between atoms: C_113  and  C_117 
REMARK   48  A    between atoms: C_113  and  C_119 
REMARK   49  A    between atoms: N_114  and  C_124 
REMARK   50  A    between atoms: C_115  and  C_119 
REMARK   51  A    between atoms: C_117  and  C_121 
REMARK   52  A    between atoms: N_118  and  C_119 
REMARK   53  A    between atoms: C_121  and  C_126 
REMARK   54  A    between atoms: C_124  and  C_125 
REMARK   55  A    between atoms: C_125  and  C_126 
REMARK   56  A    between atoms: C_126  and  N_129 
REMARK   57  A    between atoms: C_137  and  O_139 
REMARK   58  A    between atoms: C_142  and  C_144 
REMARK   59  A    between atoms: O_143  and  C_144 
REMARK   60  A    between atoms: C_147  and  C_149 
REMARK   61  A    between atoms: O_148  and  C_149 
ROOT
HETATM    1  C   UNL     1      25.117  70.458  26.567  1.00  0.00     0.187 C 
HETATM    2  C   UNL     1      25.026  69.115  25.757  1.00  0.00     0.180 C 
HETATM    3  C   UNL     1      24.223  71.567  25.964  1.00  0.00     0.183 C 
HETATM    4  C   UNL     1      22.803  71.018  25.626  1.00  0.00     0.208 C 
HETATM    5  C   UNL     1      23.090  69.862  24.635  1.00  0.00     0.292 C 
HETATM    6  O   UNL     1      23.689  68.785  25.341  1.00  0.00    -0.348 OA
ENDROOT
BRANCH   1   7
HETATM    7  O   UNL     1      24.713  70.235  27.907  1.00  0.00    -0.348 OA
BRANCH   7   8
HETATM    8  C   UNL     1      25.629  70.750  28.877  1.00  0.00     0.292 C 
HETATM    9  O   UNL     1      26.742  71.294  28.197  1.00  0.00    -0.348 OA
HETATM   10  C   UNL     1      27.700  71.915  29.066  1.00  0.00     0.180 C 
HETATM   11  C   UNL     1      27.808  71.275  30.491  1.00  0.00     0.187 C 
HETATM   12  C   UNL     1      27.499  69.784  30.368  1.00  0.00     0.183 C 
HETATM   13  C   UNL     1      26.037  69.622  29.876  1.00  0.00     0.204 C 
BRANCH  10  14
HETATM   14  C   UNL     1      27.476  73.431  29.143  1.00  0.00     0.203 C 
BRANCH  14  15
HETATM   15  O   UNL     1      26.564  73.715  30.181  1.00  0.00    -0.379 OA
BRANCH  15  16
HETATM   16  C   UNL     1      25.957  74.966  29.948  1.00  0.00     0.281 C 
BRANCH  16  17
HETATM   17  C   UNL     1      24.472  74.799  30.033  1.00  0.00     0.313 C 
HETATM   18  O   UNL     1      23.787  75.631  30.606  1.00  0.00    -0.260 OA
BRANCH  17  19
HETATM   19  O   UNL     1      23.886  73.724  29.473  1.00  0.00    -0.148 OA
HETATM   20 Na   UNL     1      22.072  73.124  30.117  1.00  0.00     0.000 Na
ENDBRANCH  17  19
ENDBRANCH  16  17
ENDBRANCH  15  16
ENDBRANCH  14  15
ENDBRANCH  10  14
BRANCH  11  21
HETATM   21  O   UNL     1      29.128  71.428  30.992  1.00  0.00    -0.348 OA
BRANCH  21  22
HETATM   22  C   UNL     1      29.325  70.931  32.303  1.00  0.00     0.292 C 
HETATM   23  O   UNL     1      29.072  72.001  33.209  1.00  0.00    -0.351 OA
HETATM   24  C   UNL     1      29.512  71.796  34.557  1.00  0.00     0.151 C 
HETATM   25  C   UNL     1      29.877  70.327  34.874  1.00  0.00     0.068 C 
HETATM   26  C   UNL     1      30.934  69.782  33.881  1.00  0.00     0.154 C 
HETATM   27  C   UNL     1      30.778  70.389  32.451  1.00  0.00     0.205 C 
BRANCH  24  28
HETATM   28  C   UNL     1      28.393  72.263  35.499  1.00  0.00     0.200 C 
BRANCH  28  29
HETATM   29  O   UNL     1      28.542  73.646  35.750  1.00  0.00    -0.379 OA
BRANCH  29  30
HETATM   30  C   UNL     1      27.312  74.309  35.541  1.00  0.00     0.281 C 
BRANCH  30  31
HETATM   31  C   UNL     1      27.253  74.783  34.121  1.00  0.00     0.313 C 
HETATM   32  O   UNL     1      26.213  74.699  33.486  1.00  0.00    -0.260 OA
BRANCH  31  33
HETATM   33  O   UNL     1      28.347  75.306  33.537  1.00  0.00    -0.148 OA
HETATM   34 Na   UNL     1      28.286  75.938  31.626  1.00  0.00     0.000 Na
ENDBRANCH  31  33
ENDBRANCH  30  31
ENDBRANCH  29  30
ENDBRANCH  28  29
ENDBRANCH  24  28
BRANCH  26  35
HETATM   35  O   UNL     1      32.253  69.916  34.359  1.00  0.00    -0.393 OA
HETATM   36  H   UNL     1      32.545  69.036  34.716  1.00  0.00     0.210 HD
ENDBRANCH  26  35
BRANCH  27  37
HETATM   37  O   UNL     1      31.814  71.429  32.227  1.00  0.00    -0.376 OA
BRANCH  37  38
HETATM   38  C   UNL     1      32.675  71.249  31.040  1.00  0.00     0.194 C 
BRANCH  38  39
HETATM   39  C   UNL     1      32.289  69.993  30.202  1.00  0.00     0.116 C 
BRANCH  39  40
HETATM   40  C   UNL     1      33.539  69.020  30.158  1.00  0.00     0.053 C 
BRANCH  40  41
HETATM   41  C   UNL     1      34.995  69.557  30.404  1.00  0.00     0.094 C 
BRANCH  41  42
HETATM   42  C   UNL     1      35.895  68.360  30.935  1.00  0.00     0.051 C 
BRANCH  42  43
HETATM   43  C   UNL     1      37.427  68.483  31.260  1.00  0.00     0.094 C 
BRANCH  43  44
HETATM   44  C   UNL     1      37.859  67.448  32.349  1.00  0.00     0.051 C 
BRANCH  44  45
HETATM   45  C   UNL     1      37.277  66.039  32.077  1.00  0.00     0.094 C 
BRANCH  45  46
HETATM   46  C   UNL     1      38.275  64.968  31.527  1.00  0.00     0.051 C 
BRANCH  46  47
HETATM   47  C   UNL     1      39.810  65.235  31.542  1.00  0.00     0.089 C 
HETATM   48  C   UNL     1      40.441  64.554  32.767  1.00  0.00     0.033 C 
BRANCH  47  49
HETATM   49  N   UNL     1      40.514  64.784  30.352  1.00  0.00    -0.334 N 
HETATM   50  C   UNL     1      39.917  64.473  29.116  1.00  0.00     0.210 A 
HETATM   51  N   UNL     1      40.791  64.161  28.238  1.00  0.00    -0.254 NA
HETATM   52  C   UNL     1      42.051  64.266  28.872  1.00  0.00     0.150 A 
HETATM   53  C   UNL     1      41.901  64.648  30.137  1.00  0.00     0.082 A 
ENDBRANCH  47  49
ENDBRANCH  46  47
ENDBRANCH  45  46
BRANCH  45  54
HETATM   54  N   UNL     1      36.588  65.558  33.306  1.00  0.00    -0.339 N 
HETATM   55  C   UNL     1      36.771  66.049  34.554  1.00  0.00     0.209 A 
HETATM   56  N   UNL     1      35.984  65.448  35.469  1.00  0.00    -0.254 NA
HETATM   57  C   UNL     1      35.273  64.546  34.774  1.00  0.00     0.142 A 
HETATM   58  C   UNL     1      35.636  64.609  33.443  1.00  0.00     0.026 A 
HETATM   59  C   UNL     1      35.037  63.748  32.376  1.00  0.00     0.070 C 
ENDBRANCH  45  54
ENDBRANCH  44  45
ENDBRANCH  43  44
BRANCH  43  60
HETATM   60  N   UNL     1      38.259  68.238  30.068  1.00  0.00    -0.345 N 
HETATM   61  C   UNL     1      37.862  67.685  28.903  1.00  0.00     0.209 A 
HETATM   62  N   UNL     1      38.854  67.646  27.993  1.00  0.00    -0.255 NA
HETATM   63  C   UNL     1      39.911  68.211  28.609  1.00  0.00     0.135 A 
HETATM   64  C   UNL     1      39.546  68.588  29.881  1.00  0.00     0.111 A 
ENDBRANCH  43  60
ENDBRANCH  42  43
ENDBRANCH  41  42
BRANCH  41  65
HETATM   65  N   UNL     1      35.534  70.407  29.319  1.00  0.00    -0.339 N 
HETATM   66  C   UNL     1      35.323  70.140  27.950  1.00  0.00     0.209 A 
HETATM   67  N   UNL     1      36.039  71.018  27.126  1.00  0.00    -0.254 NA
HETATM   68  C   UNL     1      36.815  71.768  28.022  1.00  0.00     0.142 A 
HETATM   69  C   UNL     1      36.575  71.406  29.284  1.00  0.00     0.026 A 
HETATM   70  C   UNL     1      37.425  71.959  30.403  1.00  0.00     0.070 C 
ENDBRANCH  41  65
ENDBRANCH  40  41
ENDBRANCH  39  40
BRANCH  39  71
HETATM   71  N   UNL     1      31.659  70.330  28.895  1.00  0.00    -0.343 N 
HETATM   72  C   UNL     1      31.310  69.509  27.876  1.00  0.00     0.111 A 
HETATM   73  C   UNL     1      30.792  70.267  26.853  1.00  0.00     0.135 A 
HETATM   74  N   UNL     1      30.832  71.563  27.202  1.00  0.00    -0.255 NA
HETATM   75  C   UNL     1      31.374  71.570  28.435  1.00  0.00     0.209 A 
ENDBRANCH  39  71
ENDBRANCH  38  39
ENDBRANCH  37  38
ENDBRANCH  27  37
ENDBRANCH  21  22
ENDBRANCH  11  21
BRANCH  12  76
HETATM   76  O   UNL     1      28.444  69.154  29.528  1.00  0.00    -0.390 OA
HETATM   77  H   UNL     1      28.289  68.176  29.527  1.00  0.00     0.210 HD
ENDBRANCH  12  76
BRANCH  13  78
HETATM   78  O   UNL     1      25.830  68.281  29.345  1.00  0.00    -0.388 OA
HETATM   79  H   UNL     1      25.023  68.267  28.807  1.00  0.00     0.210 HD
ENDBRANCH  13  78
ENDBRANCH   7   8
ENDBRANCH   1   7
BRANCH   2  80
HETATM   80  C   UNL     1      26.039  69.051  24.584  1.00  0.00     0.203 C 
BRANCH  80  81
HETATM   81  O   UNL     1      27.231  68.407  24.994  1.00  0.00    -0.379 OA
BRANCH  81  82
HETATM   82  C   UNL     1      27.015  67.037  25.251  1.00  0.00     0.281 C 
BRANCH  82  83
HETATM   83  C   UNL     1      27.750  66.668  26.503  1.00  0.00     0.313 C 
HETATM   84  O   UNL     1      28.060  67.535  27.305  1.00  0.00    -0.260 OA
BRANCH  83  85
HETATM   85  O   UNL     1      28.076  65.384  26.755  1.00  0.00    -0.148 OA
HETATM   86 Na   UNL     1      29.990  64.757  26.751  1.00  0.00     0.000 Na
ENDBRANCH  83  85
ENDBRANCH  82  83
ENDBRANCH  81  82
ENDBRANCH  80  81
ENDBRANCH   2  80
BRANCH   3  87
HETATM   87  O   UNL     1      24.161  72.669  26.833  1.00  0.00    -0.390 OA
HETATM   88  H   UNL     1      23.210  72.778  27.091  1.00  0.00     0.210 HD
ENDBRANCH   3  87
BRANCH   4  89
HETATM   89  O   UNL     1      22.084  70.603  26.870  1.00  0.00    -0.376 OA
BRANCH  89  90
HETATM   90  C   UNL     1      20.607  70.568  26.784  1.00  0.00     0.194 C 
BRANCH  90  91
HETATM   91  C   UNL     1      19.859  71.219  28.019  1.00  0.00     0.116 C 
BRANCH  91  92
HETATM   92  N   UNL     1      18.784  72.148  27.588  1.00  0.00    -0.343 N 
HETATM   93  C   UNL     1      18.070  72.124  26.441  1.00  0.00     0.111 A 
HETATM   94  C   UNL     1      17.194  73.183  26.445  1.00  0.00     0.135 A 
HETATM   95  N   UNL     1      17.357  73.886  27.578  1.00  0.00    -0.255 NA
HETATM   96  C   UNL     1      18.332  73.240  28.250  1.00  0.00     0.209 A 
ENDBRANCH  91  92
BRANCH  91  97
HETATM   97  C   UNL     1      19.429  70.121  29.072  1.00  0.00     0.053 C 
BRANCH  97  98
HETATM   98  C   UNL     1      18.731  68.760  28.657  1.00  0.00     0.094 C 
BRANCH  98  99
HETATM   99  C   UNL     1      18.860  67.574  29.687  1.00  0.00     0.051 C 
BRANCH  99 100
HETATM  100  C   UNL     1      20.088  66.619  29.521  1.00  0.00     0.094 C 
BRANCH 100 101
HETATM  101  N   UNL     1      21.241  67.061  30.328  1.00  0.00    -0.345 N 
HETATM  102  C   UNL     1      21.537  66.680  31.587  1.00  0.00     0.111 A 
HETATM  103  C   UNL     1      22.671  67.350  31.983  1.00  0.00     0.135 A 
HETATM  104  N   UNL     1      23.079  68.159  30.986  1.00  0.00    -0.255 NA
HETATM  105  C   UNL     1      22.185  67.964  29.996  1.00  0.00     0.209 A 
ENDBRANCH 100 101
BRANCH 100 106
HETATM  106  C   UNL     1      20.563  66.456  28.036  1.00  0.00     0.051 C 
BRANCH 106 107
HETATM  107  C   UNL     1      21.181  65.050  27.797  1.00  0.00     0.094 C 
BRANCH 107 108
HETATM  108  C   UNL     1      20.893  64.380  26.413  1.00  0.00     0.051 C 
BRANCH 108 109
HETATM  109  C   UNL     1      20.255  62.958  26.345  1.00  0.00     0.089 C 
HETATM  110  C   UNL     1      20.148  62.515  24.876  1.00  0.00     0.033 C 
BRANCH 109 111
HETATM  111  N   UNL     1      20.949  61.922  27.091  1.00  0.00    -0.334 N 
HETATM  112  C   UNL     1      22.287  61.495  26.993  1.00  0.00     0.082 A 
HETATM  113  C   UNL     1      22.434  60.519  27.888  1.00  0.00     0.150 A 
HETATM  114  N   UNL     1      21.217  60.287  28.569  1.00  0.00    -0.254 NA
HETATM  115  C   UNL     1      20.371  61.111  28.086  1.00  0.00     0.210 A 
ENDBRANCH 109 111
ENDBRANCH 108 109
ENDBRANCH 107 108
BRANCH 107 116
HETATM  116  N   UNL     1      22.605  65.027  28.133  1.00  0.00    -0.339 N 
HETATM  117  C   UNL     1      23.623  65.769  27.501  1.00  0.00     0.209 A 
HETATM  118  N   UNL     1      24.859  65.542  28.132  1.00  0.00    -0.254 NA
HETATM  119  C   UNL     1      24.559  64.643  29.179  1.00  0.00     0.142 A 
HETATM  120  C   UNL     1      23.259  64.343  29.191  1.00  0.00     0.026 A 
HETATM  121  C   UNL     1      22.632  63.419  30.196  1.00  0.00     0.070 C 
ENDBRANCH 107 116
ENDBRANCH 106 107
ENDBRANCH 100 106
ENDBRANCH  99 100
ENDBRANCH  98  99
BRANCH  98 122
HETATM  122  N   UNL     1      17.471  68.817  27.882  1.00  0.00    -0.339 N 
HETATM  123  C   UNL     1      16.218  69.494  28.020  1.00  0.00     0.026 A 
HETATM  124  C   UNL     1      15.436  69.248  26.968  1.00  0.00     0.142 A 
HETATM  125  C   UNL     1      15.757  70.408  29.092  1.00  0.00     0.070 C 
HETATM  126  N   UNL     1      16.102  68.457  26.020  1.00  0.00    -0.254 NA
HETATM  127  C   UNL     1      17.370  68.255  26.583  1.00  0.00     0.209 A 
ENDBRANCH  98 122
ENDBRANCH  97  98
ENDBRANCH  91  97
ENDBRANCH  90  91
ENDBRANCH  89  90
ENDBRANCH   4  89
BRANCH   5 128
HETATM  128  O   UNL     1      21.926  69.450  23.897  1.00  0.00    -0.348 OA
BRANCH 128 129
HETATM  129  C   UNL     1      22.296  68.711  22.713  1.00  0.00     0.187 C 
HETATM  130  C   UNL     1      21.223  67.670  22.285  1.00  0.00     0.180 C 
HETATM  131  O   UNL     1      21.749  66.819  21.269  1.00  0.00    -0.348 OA
HETATM  132  C   UNL     1      20.786  66.791  23.464  1.00  0.00     0.203 C 
HETATM  133  C   UNL     1      22.121  67.519  20.088  1.00  0.00     0.292 C 
HETATM  134  O   UNL     1      20.956  67.861  19.335  1.00  0.00    -0.348 OA
HETATM  135  C   UNL     1      23.063  68.725  20.369  1.00  0.00     0.204 C 
HETATM  136  C   UNL     1      20.832  67.074  18.144  1.00  0.00     0.187 C 
HETATM  137  C   UNL     1      19.363  66.559  17.948  1.00  0.00     0.176 C 
HETATM  138  C   UNL     1      21.224  67.887  16.899  1.00  0.00     0.180 C 
HETATM  139  O   UNL     1      19.054  66.144  16.606  1.00  0.00    -0.378 OA
HETATM  140  C   UNL     1      19.028  65.433  18.951  1.00  0.00     0.203 C 
HETATM  141  C   UNL     1      20.199  65.760  15.876  1.00  0.00     0.202 C 
HETATM  142  C   UNL     1      21.152  66.960  15.642  1.00  0.00     0.173 C 
HETATM  143  O   UNL     1      17.777  64.809  18.716  1.00  0.00    -0.379 OA
HETATM  144  C   UNL     1      16.701  65.721  18.772  1.00  0.00     0.280 C 
HETATM  145  C   UNL     1      15.443  64.966  19.077  1.00  0.00     0.308 C 
HETATM  146  O   UNL     1      15.093  64.045  18.357  1.00  0.00    -0.261 OA
HETATM  147  O   UNL     1      14.685  65.309  20.135  1.00  0.00    -0.158 OA
HETATM  148 Na   UNL     1      15.156  66.920  21.249  1.00  0.00    -0.020 Na
HETATM  149 Na   UNL     1      15.597  67.446  23.827  1.00  0.00     0.080 Na
HETATM  150  O   UNL     1      16.161  65.591  23.273  1.00  0.00    -0.180 OA
HETATM  151  C   UNL     1      17.463  65.306  23.084  1.00  0.00     0.302 C 
HETATM  152  C   UNL     1      18.494  66.371  23.307  1.00  0.00     0.280 C 
HETATM  153  O   UNL     1      17.789  64.179  22.741  1.00  0.00    -0.261 OA
HETATM  154  O   UNL     1      19.794  65.859  23.067  1.00  0.00    -0.379 OA
HETATM  155  C   UNL     1      22.557  69.632  21.511  1.00  0.00     0.183 C 
BRANCH 142 156
HETATM  156  O   UNL     1      20.814  67.718  14.433  1.00  0.00    -0.391 OA
HETATM  157  H   UNL     1      19.936  68.117  14.536  1.00  0.00     0.210 HD
ENDBRANCH 142 156
BRANCH 138 158
HETATM  158  O   UNL     1      20.411  69.036  16.790  1.00  0.00    -0.390 OA
HETATM  159  H   UNL     1      20.922  69.830  17.088  1.00  0.00     0.210 HD
ENDBRANCH 138 158
BRANCH 135 160
HETATM  160  O   UNL     1      23.353  69.474  19.146  1.00  0.00    -0.388 OA
HETATM  161  H   UNL     1      24.209  69.921  19.236  1.00  0.00     0.210 HD
ENDBRANCH 135 160
BRANCH 155 162
HETATM  162  O   UNL     1      21.390  70.312  21.126  1.00  0.00    -0.390 OA
HETATM  163  H   UNL     1      20.634  69.860  21.582  1.00  0.00     0.210 HD
ENDBRANCH 155 162
ENDBRANCH 128 129
ENDBRANCH   5 128
TORSDOF 61
ENDMDL
MODEL 5
REMARK VINA RESULT:      -6.2      3.806      8.181
REMARK WARNING: 32 MAX_TORS EXCEEDED!!!
REMARK  61 active torsions:
REMARK  status: ('A' for Active; 'I' for Inactive)
REMARK    1  A    between atoms: C_1  and  O_30 
REMARK    2  A    between atoms: C_2  and  C_6 
REMARK    3  A    between atoms: C_3  and  O_9 
REMARK    4  A    between atoms: C_4  and  O_11 
REMARK    5  A    between atoms: C_5  and  O_12 
REMARK    6  A    between atoms: C_6  and  O_7 
REMARK    7  A    between atoms: O_7  and  C_147 
REMARK    8  A    between atoms: O_11  and  C_107 
REMARK    9  A    between atoms: O_12  and  C_20 
REMARK   10  A    between atoms: O_14  and  C_18 
REMARK   11  A    between atoms: O_21  and  C_24 
REMARK   12  A    between atoms: O_26  and  C_29 
REMARK   13  A    between atoms: C_28  and  C_34 
REMARK   14  A    between atoms: O_30  and  C_33 
REMARK   15  A    between atoms: C_31  and  O_53 
REMARK   16  A    between atoms: O_32  and  C_35 
REMARK   17  A    between atoms: C_34  and  O_59 
REMARK   18  A    between atoms: O_37  and  C_41 
REMARK   19  A    between atoms: O_43  and  C_46 
REMARK   20  A    between atoms: O_48  and  C_52 
REMARK   21  A    between atoms: C_50  and  C_57 
REMARK   22  A    between atoms: O_51  and  C_57 
REMARK   23  A    between atoms: O_51  and  C_60 
REMARK   24  A    between atoms: O_53  and  C_56 
REMARK   25  A    between atoms: O_55  and  C_58 
REMARK   26  A    between atoms: O_55  and  C_61 
REMARK   27  A    between atoms: O_59  and  C_142 
REMARK   28  A    between atoms: C_60  and  C_137 
REMARK   29  A    between atoms: C_61  and  C_62 
REMARK   30  A    between atoms: C_62  and  C_63 
REMARK   31  A    between atoms: C_62  and  N_76 
REMARK   32  A    between atoms: C_63  and  C_64 
REMARK   33  A    between atoms: C_64  and  C_65 
REMARK   34  A    between atoms: C_64  and  N_90 
REMARK   35  A    between atoms: C_65  and  C_66 
REMARK   36  A    between atoms: C_66  and  C_67 
REMARK   37  A    between atoms: C_66  and  N_80 
REMARK   38  A    between atoms: C_67  and  C_68 
REMARK   39  A    between atoms: C_68  and  C_69 
REMARK   40  A    between atoms: C_68  and  N_95 
REMARK   41  A    between atoms: C_69  and  C_70 
REMARK   42  A    between atoms: C_70  and  N_85 
REMARK   43  A    between atoms: N_102  and  C_108 
REMARK   44  A    between atoms: C_107  and  C_108 
REMARK   45  A    between atoms: C_108  and  C_115 
REMARK   46  A    between atoms: N_111  and  C_117 
REMARK   47  A    between atoms: C_113  and  C_117 
REMARK   48  A    between atoms: C_113  and  C_119 
REMARK   49  A    between atoms: N_114  and  C_124 
REMARK   50  A    between atoms: C_115  and  C_119 
REMARK   51  A    between atoms: C_117  and  C_121 
REMARK   52  A    between atoms: N_118  and  C_119 
REMARK   53  A    between atoms: C_121  and  C_126 
REMARK   54  A    between atoms: C_124  and  C_125 
REMARK   55  A    between atoms: C_125  and  C_126 
REMARK   56  A    between atoms: C_126  and  N_129 
REMARK   57  A    between atoms: C_137  and  O_139 
REMARK   58  A    between atoms: C_142  and  C_144 
REMARK   59  A    between atoms: O_143  and  C_144 
REMARK   60  A    between atoms: C_147  and  C_149 
REMARK   61  A    between atoms: O_148  and  C_149 
ROOT
HETATM    1  C   UNL     1      21.285  70.037  23.439  1.00  0.00     0.187 C 
HETATM    2  C   UNL     1      22.045  69.034  22.498  1.00  0.00     0.180 C 
HETATM    3  C   UNL     1      20.026  70.633  22.763  1.00  0.00     0.183 C 
HETATM    4  C   UNL     1      19.190  69.519  22.060  1.00  0.00     0.208 C 
HETATM    5  C   UNL     1      20.188  68.902  21.049  1.00  0.00     0.292 C 
HETATM    6  O   UNL     1      21.170  68.163  21.761  1.00  0.00    -0.348 OA
ENDROOT
BRANCH   1   7
HETATM    7  O   UNL     1      20.885  69.370  24.623  1.00  0.00    -0.348 OA
BRANCH   7   8
HETATM    8  C   UNL     1      21.785  69.556  25.719  1.00  0.00     0.292 C 
HETATM    9  O   UNL     1      22.525  68.366  25.899  1.00  0.00    -0.348 OA
HETATM   10  C   UNL     1      23.521  68.457  26.927  1.00  0.00     0.180 C 
HETATM   11  C   UNL     1      23.160  69.416  28.111  1.00  0.00     0.187 C 
HETATM   12  C   UNL     1      21.643  69.400  28.291  1.00  0.00     0.183 C 
HETATM   13  C   UNL     1      20.987  69.957  27.000  1.00  0.00     0.204 C 
BRANCH  10  14
HETATM   14  C   UNL     1      24.898  68.785  26.334  1.00  0.00     0.203 C 
BRANCH  14  15
HETATM   15  O   UNL     1      25.877  67.987  26.964  1.00  0.00    -0.379 OA
BRANCH  15  16
HETATM   16  C   UNL     1      25.902  66.710  26.366  1.00  0.00     0.281 C 
BRANCH  16  17
HETATM   17  C   UNL     1      27.307  66.404  25.951  1.00  0.00     0.313 C 
HETATM   18  O   UNL     1      27.984  65.614  26.589  1.00  0.00    -0.260 OA
BRANCH  17  19
HETATM   19  O   UNL     1      27.830  67.006  24.865  1.00  0.00    -0.148 OA
HETATM   20 Na   UNL     1      27.468  68.960  24.532  1.00  0.00     0.000 Na
ENDBRANCH  17  19
ENDBRANCH  16  17
ENDBRANCH  15  16
ENDBRANCH  14  15
ENDBRANCH  10  14
BRANCH  11  21
HETATM   21  O   UNL     1      23.767  68.956  29.309  1.00  0.00    -0.348 OA
BRANCH  21  22
HETATM   22  C   UNL     1      24.199  69.980  30.185  1.00  0.00     0.292 C 
HETATM   23  O   UNL     1      24.530  71.114  29.388  1.00  0.00    -0.351 OA
HETATM   24  C   UNL     1      25.276  72.145  30.047  1.00  0.00     0.151 C 
HETATM   25  C   UNL     1      25.300  72.006  31.587  1.00  0.00     0.068 C 
HETATM   26  C   UNL     1      25.823  70.613  32.019  1.00  0.00     0.154 C 
HETATM   27  C   UNL     1      25.423  69.488  31.013  1.00  0.00     0.205 C 
BRANCH  24  28
HETATM   28  C   UNL     1      24.660  73.498  29.662  1.00  0.00     0.200 C 
BRANCH  28  29
HETATM   29  O   UNL     1      24.050  74.073  30.799  1.00  0.00    -0.379 OA
BRANCH  29  30
HETATM   30  C   UNL     1      24.786  75.203  31.221  1.00  0.00     0.281 C 
BRANCH  30  31
HETATM   31  C   UNL     1      24.732  76.245  30.145  1.00  0.00     0.313 C 
HETATM   32  O   UNL     1      23.679  76.805  29.882  1.00  0.00    -0.260 OA
BRANCH  31  33
HETATM   33  O   UNL     1      25.846  76.572  29.463  1.00  0.00    -0.148 OA
HETATM   34 Na   UNL     1      27.223  75.171  29.019  1.00  0.00     0.000 Na
ENDBRANCH  31  33
ENDBRANCH  30  31
ENDBRANCH  29  30
ENDBRANCH  28  29
ENDBRANCH  24  28
BRANCH  26  35
HETATM   35  O   UNL     1      27.207  70.606  32.280  1.00  0.00    -0.393 OA
HETATM   36  H   UNL     1      27.666  70.167  31.516  1.00  0.00     0.210 HD
ENDBRANCH  26  35
BRANCH  27  37
HETATM   37  O   UNL     1      26.590  69.125  30.170  1.00  0.00    -0.376 OA
BRANCH  37  38
HETATM   38  C   UNL     1      26.977  67.699  30.167  1.00  0.00     0.194 C 
BRANCH  38  39
HETATM   39  C   UNL     1      28.480  67.483  30.521  1.00  0.00     0.116 C 
BRANCH  39  40
HETATM   40  C   UNL     1      29.332  67.644  29.195  1.00  0.00     0.053 C 
BRANCH  40  41
HETATM   41  C   UNL     1      30.095  68.982  28.878  1.00  0.00     0.094 C 
BRANCH  41  42
HETATM   42  C   UNL     1      31.573  68.626  28.415  1.00  0.00     0.051 C 
BRANCH  42  43
HETATM   43  C   UNL     1      32.869  69.057  29.189  1.00  0.00     0.094 C 
BRANCH  43  44
HETATM   44  C   UNL     1      34.094  69.166  28.224  1.00  0.00     0.051 C 
BRANCH  44  45
HETATM   45  C   UNL     1      35.419  68.761  28.917  1.00  0.00     0.094 C 
BRANCH  45  46
HETATM   46  C   UNL     1      36.454  67.985  28.038  1.00  0.00     0.051 C 
BRANCH  46  47
HETATM   47  C   UNL     1      37.150  66.701  28.583  1.00  0.00     0.089 C 
HETATM   48  C   UNL     1      38.658  66.957  28.737  1.00  0.00     0.033 C 
BRANCH  47  49
HETATM   49  N   UNL     1      36.631  66.225  29.856  1.00  0.00    -0.334 N 
HETATM   50  C   UNL     1      35.458  65.467  30.030  1.00  0.00     0.210 A 
HETATM   51  N   UNL     1      35.287  65.145  31.254  1.00  0.00    -0.254 NA
HETATM   52  C   UNL     1      36.382  65.683  31.968  1.00  0.00     0.150 A 
HETATM   53  C   UNL     1      37.201  66.326  31.141  1.00  0.00     0.082 A 
ENDBRANCH  47  49
ENDBRANCH  46  47
ENDBRANCH  45  46
BRANCH  45  54
HETATM   54  N   UNL     1      36.029  69.971  29.533  1.00  0.00    -0.339 N 
HETATM   55  C   UNL     1      36.287  70.137  30.852  1.00  0.00     0.209 A 
HETATM   56  N   UNL     1      36.880  71.318  31.119  1.00  0.00    -0.254 NA
HETATM   57  C   UNL     1      37.007  71.919  29.925  1.00  0.00     0.142 A 
HETATM   58  C   UNL     1      36.489  71.096  28.945  1.00  0.00     0.026 A 
HETATM   59  C   UNL     1      36.473  71.446  27.490  1.00  0.00     0.070 C 
ENDBRANCH  45  54
ENDBRANCH  44  45
ENDBRANCH  43  44
BRANCH  43  60
HETATM   60  N   UNL     1      32.705  70.370  29.839  1.00  0.00    -0.345 N 
HETATM   61  C   UNL     1      32.548  70.607  31.158  1.00  0.00     0.209 A 
HETATM   62  N   UNL     1      32.474  71.924  31.435  1.00  0.00    -0.255 NA
HETATM   63  C   UNL     1      32.605  72.536  30.242  1.00  0.00     0.135 A 
HETATM   64  C   UNL     1      32.760  71.585  29.259  1.00  0.00     0.111 A 
ENDBRANCH  43  60
ENDBRANCH  42  43
ENDBRANCH  41  42
BRANCH  41  65
HETATM   65  N   UNL     1      29.327  69.958  28.074  1.00  0.00    -0.339 N 
HETATM   66  C   UNL     1      29.187  69.866  26.673  1.00  0.00     0.209 A 
HETATM   67  N   UNL     1      28.523  70.977  26.136  1.00  0.00    -0.254 NA
HETATM   68  C   UNL     1      28.363  71.838  27.231  1.00  0.00     0.142 A 
HETATM   69  C   UNL     1      28.857  71.295  28.346  1.00  0.00     0.026 A 
HETATM   70  C   UNL     1      28.949  72.116  29.610  1.00  0.00     0.070 C 
ENDBRANCH  41  65
ENDBRANCH  40  41
ENDBRANCH  39  40
BRANCH  39  71
HETATM   71  N   UNL     1      28.722  66.253  31.326  1.00  0.00    -0.343 N 
HETATM   72  C   UNL     1      29.516  66.083  32.410  1.00  0.00     0.111 A 
HETATM   73  C   UNL     1      29.455  64.766  32.802  1.00  0.00     0.135 A 
HETATM   74  N   UNL     1      28.652  64.094  31.962  1.00  0.00    -0.255 NA
HETATM   75  C   UNL     1      28.236  65.016  31.073  1.00  0.00     0.209 A 
ENDBRANCH  39  71
ENDBRANCH  38  39
ENDBRANCH  37  38
ENDBRANCH  27  37
ENDBRANCH  21  22
ENDBRANCH  11  21
BRANCH  12  76
HETATM   76  O   UNL     1      21.202  68.100  28.624  1.00  0.00    -0.390 OA
HETATM   77  H   UNL     1      21.376  67.925  29.583  1.00  0.00     0.210 HD
ENDBRANCH  12  76
BRANCH  13  78
HETATM   78  O   UNL     1      19.581  69.579  26.945  1.00  0.00    -0.388 OA
HETATM   79  H   UNL     1      19.053  70.222  27.442  1.00  0.00     0.210 HD
ENDBRANCH  13  78
ENDBRANCH   7   8
ENDBRANCH   1   7
BRANCH   2  80
HETATM   80  C   UNL     1      23.083  69.737  21.584  1.00  0.00     0.203 C 
BRANCH  80  81
HETATM   81  O   UNL     1      23.872  68.780  20.902  1.00  0.00    -0.379 OA
BRANCH  81  82
HETATM   82  C   UNL     1      23.786  68.943  19.503  1.00  0.00     0.281 C 
BRANCH  82  83
HETATM   83  C   UNL     1      23.039  67.776  18.934  1.00  0.00     0.313 C 
HETATM   84  O   UNL     1      22.335  67.926  17.948  1.00  0.00    -0.260 OA
BRANCH  83  85
HETATM   85  O   UNL     1      23.135  66.558  19.502  1.00  0.00    -0.148 OA
HETATM   86 Na   UNL     1      22.175  64.958  18.743  1.00  0.00     0.000 Na
ENDBRANCH  83  85
ENDBRANCH  82  83
ENDBRANCH  81  82
ENDBRANCH  80  81
ENDBRANCH   2  80
BRANCH   3  87
HETATM   87  O   UNL     1      19.261  71.344  23.701  1.00  0.00    -0.390 OA
HETATM   88  H   UNL     1      18.866  70.673  24.317  1.00  0.00     0.210 HD
ENDBRANCH   3  87
BRANCH   4  89
HETATM   89  O   UNL     1      18.645  68.552  23.061  1.00  0.00    -0.376 OA
BRANCH  89  90
HETATM   90  C   UNL     1      17.232  68.749  23.452  1.00  0.00     0.194 C 
BRANCH  90  91
HETATM   91  C   UNL     1      16.272  69.167  22.264  1.00  0.00     0.116 C 
BRANCH  91  92
HETATM   92  N   UNL     1      15.268  68.114  21.966  1.00  0.00    -0.343 N 
HETATM   93  C   UNL     1      15.039  66.965  22.639  1.00  0.00     0.111 A 
HETATM   94  C   UNL     1      14.034  66.275  22.004  1.00  0.00     0.135 A 
HETATM   95  N   UNL     1      13.636  66.970  20.925  1.00  0.00    -0.255 NA
HETATM   96  C   UNL     1      14.406  68.077  20.922  1.00  0.00     0.209 A 
ENDBRANCH  91  92
BRANCH  91  97
HETATM   97  C   UNL     1      15.689  70.620  22.484  1.00  0.00     0.053 C 
BRANCH  97  98
HETATM   98  C   UNL     1      14.614  70.955  23.599  1.00  0.00     0.094 C 
BRANCH  98  99
HETATM   99  C   UNL     1      14.608  72.438  24.131  1.00  0.00     0.051 C 
BRANCH  99 100
HETATM  100  C   UNL     1      15.531  72.759  25.353  1.00  0.00     0.094 C 
BRANCH 100 101
HETATM  101  N   UNL     1      15.368  71.774  26.438  1.00  0.00    -0.345 N 
HETATM  102  C   UNL     1      16.213  70.771  26.750  1.00  0.00     0.111 A 
HETATM  103  C   UNL     1      15.673  70.065  27.800  1.00  0.00     0.135 A 
HETATM  104  N   UNL     1      14.489  70.611  28.139  1.00  0.00    -0.255 NA
HETATM  105  C   UNL     1      14.329  71.645  27.289  1.00  0.00     0.209 A 
ENDBRANCH 100 101
BRANCH 100 106
HETATM  106  C   UNL     1      15.306  74.191  25.952  1.00  0.00     0.051 C 
BRANCH 106 107
HETATM  107  C   UNL     1      16.583  74.702  26.676  1.00  0.00     0.094 C 
BRANCH 107 108
HETATM  108  C   UNL     1      16.938  76.214  26.493  1.00  0.00     0.051 C 
BRANCH 108 109
HETATM  109  C   UNL     1      15.866  77.216  25.964  1.00  0.00     0.089 C 
HETATM  110  C   UNL     1      14.938  77.630  27.119  1.00  0.00     0.033 C 
BRANCH 109 111
HETATM  111  N   UNL     1      16.386  78.419  25.336  1.00  0.00    -0.334 N 
HETATM  112  C   UNL     1      17.507  79.196  25.685  1.00  0.00     0.082 A 
HETATM  113  C   UNL     1      17.559  80.193  24.804  1.00  0.00     0.150 A 
HETATM  114  N   UNL     1      16.490  80.096  23.884  1.00  0.00    -0.254 NA
HETATM  115  C   UNL     1      15.822  79.060  24.217  1.00  0.00     0.210 A 
ENDBRANCH 109 111
ENDBRANCH 108 109
ENDBRANCH 107 108
BRANCH 107 116
HETATM  116  N   UNL     1      16.597  74.300  28.082  1.00  0.00    -0.339 N 
HETATM  117  C   UNL     1      15.605  74.583  29.042  1.00  0.00     0.209 A 
HETATM  118  N   UNL     1      15.926  73.984  30.272  1.00  0.00    -0.254 NA
HETATM  119  C   UNL     1      17.146  73.315  30.029  1.00  0.00     0.142 A 
HETATM  120  C   UNL     1      17.540  73.487  28.766  1.00  0.00     0.026 A 
HETATM  121  C   UNL     1      18.796  72.887  28.202  1.00  0.00     0.070 C 
ENDBRANCH 107 116
ENDBRANCH 106 107
ENDBRANCH 100 106
ENDBRANCH  99 100
ENDBRANCH  98  99
BRANCH  98 122
HETATM  122  N   UNL     1      13.299  70.276  23.543  1.00  0.00    -0.339 N 
HETATM  123  C   UNL     1      12.643  69.260  24.308  1.00  0.00     0.026 A 
HETATM  124  C   UNL     1      11.400  69.072  23.863  1.00  0.00     0.142 A 
HETATM  125  C   UNL     1      13.137  68.499  25.480  1.00  0.00     0.070 C 
HETATM  126  N   UNL     1      11.093  69.968  22.828  1.00  0.00    -0.254 NA
HETATM  127  C   UNL     1      12.261  70.733  22.692  1.00  0.00     0.209 A 
ENDBRANCH  98 122
ENDBRANCH  97  98
ENDBRANCH  91  97
ENDBRANCH  90  91
ENDBRANCH  89  90
ENDBRANCH   4  89
BRANCH   5 128
HETATM  128  O   UNL     1      19.546  68.117  20.030  1.00  0.00    -0.348 OA
BRANCH 128 129
HETATM  129  C   UNL     1      18.744  67.066  20.611  1.00  0.00     0.187 C 
HETATM  130  C   UNL     1      17.926  66.269  19.555  1.00  0.00     0.180 C 
HETATM  131  O   UNL     1      16.984  65.421  20.207  1.00  0.00    -0.348 OA
HETATM  132  C   UNL     1      17.154  67.204  18.614  1.00  0.00     0.203 C 
HETATM  133  C   UNL     1      17.593  64.454  21.056  1.00  0.00     0.292 C 
HETATM  134  O   UNL     1      18.149  63.398  20.272  1.00  0.00    -0.348 OA
HETATM  135  C   UNL     1      18.596  65.081  22.067  1.00  0.00     0.204 C 
HETATM  136  C   UNL     1      17.395  62.185  20.387  1.00  0.00     0.187 C 
HETATM  137  C   UNL     1      17.172  61.514  18.986  1.00  0.00     0.176 C 
HETATM  138  C   UNL     1      18.110  61.170  21.295  1.00  0.00     0.180 C 
HETATM  139  O   UNL     1      16.817  60.122  19.045  1.00  0.00    -0.378 OA
HETATM  140  C   UNL     1      16.137  62.299  18.150  1.00  0.00     0.203 C 
HETATM  141  C   UNL     1      16.215  59.763  20.270  1.00  0.00     0.202 C 
HETATM  142  C   UNL     1      17.208  59.904  21.453  1.00  0.00     0.173 C 
HETATM  143  O   UNL     1      15.765  61.653  16.944  1.00  0.00    -0.379 OA
HETATM  144  C   UNL     1      16.867  61.423  16.093  1.00  0.00     0.280 C 
HETATM  145  C   UNL     1      16.371  61.280  14.687  1.00  0.00     0.308 C 
HETATM  146  O   UNL     1      15.531  60.437  14.418  1.00  0.00    -0.261 OA
HETATM  147  O   UNL     1      16.859  62.068  13.711  1.00  0.00    -0.158 OA
HETATM  148 Na   UNL     1      18.355  63.361  14.096  1.00  0.00    -0.020 Na
HETATM  149 Na   UNL     1      18.800  65.974  13.790  1.00  0.00     0.080 Na
HETATM  150  O   UNL     1      16.868  65.519  14.148  1.00  0.00    -0.180 OA
HETATM  151  C   UNL     1      16.336  65.728  15.367  1.00  0.00     0.302 C 
HETATM  152  C   UNL     1      17.184  66.320  16.453  1.00  0.00     0.280 C 
HETATM  153  O   UNL     1      15.166  65.441  15.570  1.00  0.00    -0.261 OA
HETATM  154  O   UNL     1      16.429  66.467  17.644  1.00  0.00    -0.379 OA
HETATM  155  C   UNL     1      19.590  66.059  21.403  1.00  0.00     0.183 C 
BRANCH 142 156
HETATM  156  O   UNL     1      18.010  58.694  21.660  1.00  0.00    -0.391 OA
HETATM  157  H   UNL     1      18.101  58.218  20.819  1.00  0.00     0.210 HD
ENDBRANCH 142 156
BRANCH 138 158
HETATM  158  O   UNL     1      19.393  60.879  20.785  1.00  0.00    -0.390 OA
HETATM  159  H   UNL     1      19.305  60.358  19.947  1.00  0.00     0.210 HD
ENDBRANCH 138 158
BRANCH 135 160
HETATM  160  O   UNL     1      19.268  64.052  22.861  1.00  0.00    -0.388 OA
HETATM  161  H   UNL     1      19.975  64.460  23.386  1.00  0.00     0.210 HD
ENDBRANCH 135 160
BRANCH 155 162
HETATM  162  O   UNL     1      20.480  65.369  20.564  1.00  0.00    -0.390 OA
HETATM  163  H   UNL     1      20.781  66.017  19.875  1.00  0.00     0.210 HD
ENDBRANCH 155 162
ENDBRANCH 128 129
ENDBRANCH   5 128
TORSDOF 61
ENDMDL
MODEL 6
REMARK VINA RESULT:      -6.2      3.205      7.149
REMARK WARNING: 32 MAX_TORS EXCEEDED!!!
REMARK  61 active torsions:
REMARK  status: ('A' for Active; 'I' for Inactive)
REMARK    1  A    between atoms: C_1  and  O_30 
REMARK    2  A    between atoms: C_2  and  C_6 
REMARK    3  A    between atoms: C_3  and  O_9 
REMARK    4  A    between atoms: C_4  and  O_11 
REMARK    5  A    between atoms: C_5  and  O_12 
REMARK    6  A    between atoms: C_6  and  O_7 
REMARK    7  A    between atoms: O_7  and  C_147 
REMARK    8  A    between atoms: O_11  and  C_107 
REMARK    9  A    between atoms: O_12  and  C_20 
REMARK   10  A    between atoms: O_14  and  C_18 
REMARK   11  A    between atoms: O_21  and  C_24 
REMARK   12  A    between atoms: O_26  and  C_29 
REMARK   13  A    between atoms: C_28  and  C_34 
REMARK   14  A    between atoms: O_30  and  C_33 
REMARK   15  A    between atoms: C_31  and  O_53 
REMARK   16  A    between atoms: O_32  and  C_35 
REMARK   17  A    between atoms: C_34  and  O_59 
REMARK   18  A    between atoms: O_37  and  C_41 
REMARK   19  A    between atoms: O_43  and  C_46 
REMARK   20  A    between atoms: O_48  and  C_52 
REMARK   21  A    between atoms: C_50  and  C_57 
REMARK   22  A    between atoms: O_51  and  C_57 
REMARK   23  A    between atoms: O_51  and  C_60 
REMARK   24  A    between atoms: O_53  and  C_56 
REMARK   25  A    between atoms: O_55  and  C_58 
REMARK   26  A    between atoms: O_55  and  C_61 
REMARK   27  A    between atoms: O_59  and  C_142 
REMARK   28  A    between atoms: C_60  and  C_137 
REMARK   29  A    between atoms: C_61  and  C_62 
REMARK   30  A    between atoms: C_62  and  C_63 
REMARK   31  A    between atoms: C_62  and  N_76 
REMARK   32  A    between atoms: C_63  and  C_64 
REMARK   33  A    between atoms: C_64  and  C_65 
REMARK   34  A    between atoms: C_64  and  N_90 
REMARK   35  A    between atoms: C_65  and  C_66 
REMARK   36  A    between atoms: C_66  and  C_67 
REMARK   37  A    between atoms: C_66  and  N_80 
REMARK   38  A    between atoms: C_67  and  C_68 
REMARK   39  A    between atoms: C_68  and  C_69 
REMARK   40  A    between atoms: C_68  and  N_95 
REMARK   41  A    between atoms: C_69  and  C_70 
REMARK   42  A    between atoms: C_70  and  N_85 
REMARK   43  A    between atoms: N_102  and  C_108 
REMARK   44  A    between atoms: C_107  and  C_108 
REMARK   45  A    between atoms: C_108  and  C_115 
REMARK   46  A    between atoms: N_111  and  C_117 
REMARK   47  A    between atoms: C_113  and  C_117 
REMARK   48  A    between atoms: C_113  and  C_119 
REMARK   49  A    between atoms: N_114  and  C_124 
REMARK   50  A    between atoms: C_115  and  C_119 
REMARK   51  A    between atoms: C_117  and  C_121 
REMARK   52  A    between atoms: N_118  and  C_119 
REMARK   53  A    between atoms: C_121  and  C_126 
REMARK   54  A    between atoms: C_124  and  C_125 
REMARK   55  A    between atoms: C_125  and  C_126 
REMARK   56  A    between atoms: C_126  and  N_129 
REMARK   57  A    between atoms: C_137  and  O_139 
REMARK   58  A    between atoms: C_142  and  C_144 
REMARK   59  A    between atoms: O_143  and  C_144 
REMARK   60  A    between atoms: C_147  and  C_149 
REMARK   61  A    between atoms: O_148  and  C_149 
ROOT
HETATM    1  C   UNL     1      21.354  70.022  23.364  1.00  0.00     0.187 C 
HETATM    2  C   UNL     1      22.087  69.057  22.364  1.00  0.00     0.180 C 
HETATM    3  C   UNL     1      20.075  70.640  22.749  1.00  0.00     0.183 C 
HETATM    4  C   UNL     1      19.219  69.552  22.030  1.00  0.00     0.208 C 
HETATM    5  C   UNL     1      20.188  68.976  20.967  1.00  0.00     0.292 C 
HETATM    6  O   UNL     1      21.191  68.212  21.621  1.00  0.00    -0.348 OA
ENDROOT
BRANCH   1   7
HETATM    7  O   UNL     1      20.990  69.310  24.534  1.00  0.00    -0.348 OA
BRANCH   7   8
HETATM    8  C   UNL     1      21.816  69.602  25.664  1.00  0.00     0.292 C 
HETATM    9  O   UNL     1      22.641  68.483  25.917  1.00  0.00    -0.348 OA
HETATM   10  C   UNL     1      23.574  68.687  26.988  1.00  0.00     0.180 C 
HETATM   11  C   UNL     1      23.078  69.646  28.121  1.00  0.00     0.187 C 
HETATM   12  C   UNL     1      21.561  69.509  28.230  1.00  0.00     0.183 C 
HETATM   13  C   UNL     1      20.926  69.972  26.892  1.00  0.00     0.204 C 
BRANCH  10  14
HETATM   14  C   UNL     1      24.947  69.110  26.450  1.00  0.00     0.203 C 
BRANCH  14  15
HETATM   15  O   UNL     1      25.462  68.086  25.628  1.00  0.00    -0.379 OA
BRANCH  15  16
HETATM   16  C   UNL     1      25.586  66.896  26.375  1.00  0.00     0.281 C 
BRANCH  16  17
HETATM   17  C   UNL     1      26.866  66.223  25.993  1.00  0.00     0.313 C 
HETATM   18  O   UNL     1      27.302  65.297  26.658  1.00  0.00    -0.260 OA
BRANCH  17  19
HETATM   19  O   UNL     1      27.545  66.642  24.907  1.00  0.00    -0.148 OA
HETATM   20 Na   UNL     1      29.556  66.521  24.876  1.00  0.00     0.000 Na
ENDBRANCH  17  19
ENDBRANCH  16  17
ENDBRANCH  15  16
ENDBRANCH  14  15
ENDBRANCH  10  14
BRANCH  11  21
HETATM   21  O   UNL     1      23.660  69.272  29.361  1.00  0.00    -0.348 OA
BRANCH  21  22
HETATM   22  C   UNL     1      24.341  68.031  29.346  1.00  0.00     0.292 C 
HETATM   23  O   UNL     1      23.533  67.091  30.049  1.00  0.00    -0.351 OA
HETATM   24  C   UNL     1      24.176  65.863  30.412  1.00  0.00     0.151 C 
HETATM   25  C   UNL     1      25.523  65.630  29.689  1.00  0.00     0.068 C 
HETATM   26  C   UNL     1      26.491  66.820  29.903  1.00  0.00     0.154 C 
HETATM   27  C   UNL     1      25.743  68.186  30.007  1.00  0.00     0.205 C 
BRANCH  24  28
HETATM   28  C   UNL     1      23.214  64.710  30.094  1.00  0.00     0.200 C 
BRANCH  28  29
HETATM   29  O   UNL     1      23.362  64.339  28.738  1.00  0.00    -0.379 OA
BRANCH  29  30
HETATM   30  C   UNL     1      22.590  63.187  28.466  1.00  0.00     0.281 C 
BRANCH  30  31
HETATM   31  C   UNL     1      21.721  63.458  27.275  1.00  0.00     0.313 C 
HETATM   32  O   UNL     1      21.185  62.535  26.682  1.00  0.00    -0.260 OA
BRANCH  31  33
HETATM   33  O   UNL     1      21.524  64.722  26.855  1.00  0.00    -0.148 OA
HETATM   34 Na   UNL     1      22.218  66.278  27.928  1.00  0.00     0.000 Na
ENDBRANCH  31  33
ENDBRANCH  30  31
ENDBRANCH  29  30
ENDBRANCH  28  29
ENDBRANCH  24  28
BRANCH  26  35
HETATM   35  O   UNL     1      27.365  66.625  30.990  1.00  0.00    -0.393 OA
HETATM   36  H   UNL     1      28.241  66.319  30.634  1.00  0.00     0.210 HD
ENDBRANCH  26  35
BRANCH  27  37
HETATM   37  O   UNL     1      25.674  68.619  31.426  1.00  0.00    -0.376 OA
BRANCH  37  38
HETATM   38  C   UNL     1      26.442  69.830  31.778  1.00  0.00     0.194 C 
BRANCH  38  39
HETATM   39  C   UNL     1      27.179  70.453  30.554  1.00  0.00     0.116 C 
BRANCH  39  40
HETATM   40  C   UNL     1      28.604  70.955  31.033  1.00  0.00     0.053 C 
BRANCH  40  41
HETATM   41  C   UNL     1      29.701  69.941  31.521  1.00  0.00     0.094 C 
BRANCH  41  42
HETATM   42  C   UNL     1      30.010  68.921  30.342  1.00  0.00     0.051 C 
BRANCH  42  43
HETATM   43  C   UNL     1      30.891  69.260  29.088  1.00  0.00     0.094 C 
BRANCH  43  44
HETATM   44  C   UNL     1      31.720  68.018  28.626  1.00  0.00     0.051 C 
BRANCH  44  45
HETATM   45  C   UNL     1      33.245  68.246  28.777  1.00  0.00     0.094 C 
BRANCH  45  46
HETATM   46  C   UNL     1      33.731  69.733  28.764  1.00  0.00     0.051 C 
BRANCH  46  47
HETATM   47  C   UNL     1      34.611  70.268  27.594  1.00  0.00     0.089 C 
HETATM   48  C   UNL     1      34.256  71.736  27.311  1.00  0.00     0.033 C 
BRANCH  47  49
HETATM   49  N   UNL     1      36.044  70.178  27.825  1.00  0.00    -0.334 N 
HETATM   50  C   UNL     1      36.916  71.269  28.000  1.00  0.00     0.210 A 
HETATM   51  N   UNL     1      38.108  70.881  28.243  1.00  0.00    -0.254 NA
HETATM   52  C   UNL     1      38.077  69.468  28.252  1.00  0.00     0.150 A 
HETATM   53  C   UNL     1      36.843  69.032  28.012  1.00  0.00     0.082 A 
ENDBRANCH  47  49
ENDBRANCH  46  47
ENDBRANCH  45  46
BRANCH  45  54
HETATM   54  N   UNL     1      33.719  67.531  29.993  1.00  0.00    -0.339 N 
HETATM   55  C   UNL     1      33.327  67.791  31.263  1.00  0.00     0.209 A 
HETATM   56  N   UNL     1      33.891  66.959  32.162  1.00  0.00    -0.254 NA
HETATM   57  C   UNL     1      34.665  66.139  31.433  1.00  0.00     0.142 A 
HETATM   58  C   UNL     1      34.563  66.482  30.100  1.00  0.00     0.026 A 
HETATM   59  C   UNL     1      35.288  65.770  29.001  1.00  0.00     0.070 C 
ENDBRANCH  45  54
ENDBRANCH  44  45
ENDBRANCH  43  44
BRANCH  43  60
HETATM   60  N   UNL     1      30.069  69.689  27.942  1.00  0.00    -0.345 N 
HETATM   61  C   UNL     1      30.003  70.927  27.410  1.00  0.00     0.209 A 
HETATM   62  N   UNL     1      29.193  70.979  26.335  1.00  0.00    -0.255 NA
HETATM   63  C   UNL     1      28.744  69.718  26.180  1.00  0.00     0.135 A 
HETATM   64  C   UNL     1      29.290  68.918  27.158  1.00  0.00     0.111 A 
ENDBRANCH  43  60
ENDBRANCH  42  43
ENDBRANCH  41  42
BRANCH  41  65
HETATM   65  N   UNL     1      30.844  70.556  32.229  1.00  0.00    -0.339 N 
HETATM   66  C   UNL     1      31.056  70.425  33.617  1.00  0.00     0.209 A 
HETATM   67  N   UNL     1      32.133  71.204  34.062  1.00  0.00    -0.254 NA
HETATM   68  C   UNL     1      32.515  71.934  32.927  1.00  0.00     0.142 A 
HETATM   69  C   UNL     1      31.761  71.613  31.873  1.00  0.00     0.026 A 
HETATM   70  C   UNL     1      31.881  72.401  30.591  1.00  0.00     0.070 C 
ENDBRANCH  41  65
ENDBRANCH  40  41
ENDBRANCH  39  40
BRANCH  39  71
HETATM   71  N   UNL     1      26.345  71.429  29.800  1.00  0.00    -0.343 N 
HETATM   72  C   UNL     1      26.425  71.798  28.499  1.00  0.00     0.111 A 
HETATM   73  C   UNL     1      25.471  72.757  28.251  1.00  0.00     0.135 A 
HETATM   74  N   UNL     1      24.804  73.018  29.387  1.00  0.00    -0.255 NA
HETATM   75  C   UNL     1      25.364  72.211  30.308  1.00  0.00     0.209 A 
ENDBRANCH  39  71
ENDBRANCH  38  39
ENDBRANCH  37  38
ENDBRANCH  27  37
ENDBRANCH  21  22
ENDBRANCH  11  21
BRANCH  12  76
HETATM   76  O   UNL     1      21.210  68.187  28.585  1.00  0.00    -0.390 OA
HETATM   77  H   UNL     1      21.809  67.548  28.121  1.00  0.00     0.210 HD
ENDBRANCH  12  76
BRANCH  13  78
HETATM   78  O   UNL     1      19.560  69.477  26.784  1.00  0.00    -0.388 OA
HETATM   79  H   UNL     1      18.988  70.179  26.436  1.00  0.00     0.210 HD
ENDBRANCH  13  78
ENDBRANCH   7   8
ENDBRANCH   1   7
BRANCH   2  80
HETATM   80  C   UNL     1      23.096  69.796  21.447  1.00  0.00     0.203 C 
BRANCH  80  81
HETATM   81  O   UNL     1      23.918  68.867  20.764  1.00  0.00    -0.379 OA
BRANCH  81  82
HETATM   82  C   UNL     1      23.786  68.992  19.366  1.00  0.00     0.281 C 
BRANCH  82  83
HETATM   83  C   UNL     1      23.090  67.773  18.844  1.00  0.00     0.313 C 
HETATM   84  O   UNL     1      23.411  66.668  19.251  1.00  0.00    -0.260 OA
BRANCH  83  85
HETATM   85  O   UNL     1      22.110  67.883  17.925  1.00  0.00    -0.148 OA
HETATM   86 Na   UNL     1      20.435  66.768  18.025  1.00  0.00     0.000 Na
ENDBRANCH  83  85
ENDBRANCH  82  83
ENDBRANCH  81  82
ENDBRANCH  80  81
ENDBRANCH   2  80
BRANCH   3  87
HETATM   87  O   UNL     1      19.337  71.314  23.736  1.00  0.00    -0.390 OA
HETATM   88  H   UNL     1      19.195  72.239  23.406  1.00  0.00     0.210 HD
ENDBRANCH   3  87
BRANCH   4  89
HETATM   89  O   UNL     1      18.706  68.546  23.010  1.00  0.00    -0.376 OA
BRANCH  89  90
HETATM   90  C   UNL     1      17.238  68.504  23.187  1.00  0.00     0.194 C 
BRANCH  90  91
HETATM   91  C   UNL     1      16.743  68.797  24.662  1.00  0.00     0.116 C 
BRANCH  91  92
HETATM   92  N   UNL     1      15.856  69.987  24.723  1.00  0.00    -0.343 N 
HETATM   93  C   UNL     1      14.756  70.170  25.488  1.00  0.00     0.111 A 
HETATM   94  C   UNL     1      14.228  71.408  25.210  1.00  0.00     0.135 A 
HETATM   95  N   UNL     1      14.974  72.003  24.264  1.00  0.00    -0.255 NA
HETATM   96  C   UNL     1      15.950  71.117  23.983  1.00  0.00     0.209 A 
ENDBRANCH  91  92
BRANCH  91  97
HETATM   97  C   UNL     1      16.175  67.490  25.347  1.00  0.00     0.053 C 
BRANCH  97  98
HETATM   98  C   UNL     1      15.513  66.308  24.524  1.00  0.00     0.094 C 
BRANCH  98  99
HETATM   99  C   UNL     1      15.661  64.867  25.144  1.00  0.00     0.051 C 
BRANCH  99 100
HETATM  100  C   UNL     1      16.994  64.101  24.854  1.00  0.00     0.094 C 
BRANCH 100 101
HETATM  101  N   UNL     1      16.770  62.653  24.679  1.00  0.00    -0.345 N 
HETATM  102  C   UNL     1      15.586  62.039  24.490  1.00  0.00     0.111 A 
HETATM  103  C   UNL     1      15.813  60.684  24.411  1.00  0.00     0.135 A 
HETATM  104  N   UNL     1      17.130  60.446  24.563  1.00  0.00    -0.255 NA
HETATM  105  C   UNL     1      17.684  61.663  24.730  1.00  0.00     0.209 A 
ENDBRANCH 100 101
BRANCH 100 106
HETATM  106  C   UNL     1      18.087  64.298  25.961  1.00  0.00     0.051 C 
BRANCH 106 107
HETATM  107  C   UNL     1      17.467  64.202  27.383  1.00  0.00     0.094 C 
BRANCH 107 108
HETATM  108  C   UNL     1      17.966  63.030  28.292  1.00  0.00     0.051 C 
BRANCH 108 109
HETATM  109  C   UNL     1      17.005  61.860  28.665  1.00  0.00     0.089 C 
HETATM  110  C   UNL     1      15.597  62.160  28.123  1.00  0.00     0.033 C 
BRANCH 109 111
HETATM  111  N   UNL     1      17.409  60.543  28.199  1.00  0.00    -0.334 N 
HETATM  112  C   UNL     1      18.696  60.057  27.900  1.00  0.00     0.082 A 
HETATM  113  C   UNL     1      18.536  58.794  27.511  1.00  0.00     0.150 A 
HETATM  114  N   UNL     1      17.169  58.437  27.539  1.00  0.00    -0.254 NA
HETATM  115  C   UNL     1      16.536  59.470  27.938  1.00  0.00     0.210 A 
ENDBRANCH 109 111
ENDBRANCH 108 109
ENDBRANCH 107 108
BRANCH 107 116
HETATM  116  N   UNL     1      17.511  65.491  28.074  1.00  0.00    -0.339 N 
HETATM  117  C   UNL     1      18.607  66.375  28.122  1.00  0.00     0.209 A 
HETATM  118  N   UNL     1      18.264  67.544  28.824  1.00  0.00    -0.254 NA
HETATM  119  C   UNL     1      16.915  67.348  29.195  1.00  0.00     0.142 A 
HETATM  120  C   UNL     1      16.469  66.167  28.763  1.00  0.00     0.026 A 
HETATM  121  C   UNL     1      15.068  65.678  28.993  1.00  0.00     0.070 C 
ENDBRANCH 107 116
ENDBRANCH 106 107
ENDBRANCH 100 106
ENDBRANCH  99 100
ENDBRANCH  98  99
BRANCH  98 122
HETATM  122  N   UNL     1      14.260  66.575  23.784  1.00  0.00    -0.339 N 
HETATM  123  C   UNL     1      12.943  67.015  24.133  1.00  0.00     0.026 A 
HETATM  124  C   UNL     1      12.197  67.168  23.038  1.00  0.00     0.142 A 
HETATM  125  C   UNL     1      12.385  67.345  25.466  1.00  0.00     0.070 C 
HETATM  126  N   UNL     1      12.946  66.916  21.879  1.00  0.00    -0.254 NA
HETATM  127  C   UNL     1      14.225  66.608  22.367  1.00  0.00     0.209 A 
ENDBRANCH  98 122
ENDBRANCH  97  98
ENDBRANCH  91  97
ENDBRANCH  90  91
ENDBRANCH  89  90
ENDBRANCH   4  89
BRANCH   5 128
HETATM  128  O   UNL     1      19.516  68.227  19.939  1.00  0.00    -0.348 OA
BRANCH 128 129
HETATM  129  C   UNL     1      18.766  67.129  20.500  1.00  0.00     0.187 C 
HETATM  130  C   UNL     1      17.962  66.332  19.433  1.00  0.00     0.180 C 
HETATM  131  O   UNL     1      17.065  65.428  20.074  1.00  0.00    -0.348 OA
HETATM  132  C   UNL     1      17.138  67.263  18.534  1.00  0.00     0.203 C 
HETATM  133  C   UNL     1      17.726  64.462  20.883  1.00  0.00     0.292 C 
HETATM  134  O   UNL     1      18.310  63.452  20.059  1.00  0.00    -0.348 OA
HETATM  135  C   UNL     1      18.720  65.097  21.897  1.00  0.00     0.204 C 
HETATM  136  C   UNL     1      17.605  62.207  20.148  1.00  0.00     0.187 C 
HETATM  137  C   UNL     1      17.384  61.570  18.731  1.00  0.00     0.176 C 
HETATM  138  C   UNL     1      18.375  61.195  21.013  1.00  0.00     0.180 C 
HETATM  139  O   UNL     1      17.085  60.163  18.753  1.00  0.00    -0.378 OA
HETATM  140  C   UNL     1      16.306  62.338  17.936  1.00  0.00     0.203 C 
HETATM  141  C   UNL     1      16.519  59.745  19.976  1.00  0.00     0.202 C 
HETATM  142  C   UNL     1      17.526  59.889  21.147  1.00  0.00     0.173 C 
HETATM  143  O   UNL     1      15.938  61.714  16.717  1.00  0.00    -0.379 OA
HETATM  144  C   UNL     1      17.034  61.553  15.843  1.00  0.00     0.280 C 
HETATM  145  C   UNL     1      16.521  61.433  14.441  1.00  0.00     0.308 C 
HETATM  146  O   UNL     1      15.709  60.566  14.160  1.00  0.00    -0.261 OA
HETATM  147  O   UNL     1      16.961  62.268  13.481  1.00  0.00    -0.158 OA
HETATM  148 Na   UNL     1      18.411  63.607  13.882  1.00  0.00    -0.020 Na
HETATM  149 Na   UNL     1      18.749  66.244  13.649  1.00  0.00     0.080 Na
HETATM  150  O   UNL     1      16.842  65.703  14.023  1.00  0.00    -0.180 OA
HETATM  151  C   UNL     1      16.323  65.854  15.256  1.00  0.00     0.302 C 
HETATM  152  C   UNL     1      17.165  66.446  16.346  1.00  0.00     0.280 C 
HETATM  153  O   UNL     1      15.169  65.515  15.469  1.00  0.00    -0.261 OA
HETATM  154  O   UNL     1      16.426  66.528  17.553  1.00  0.00    -0.379 OA
HETATM  155  C   UNL     1      19.664  66.133  21.248  1.00  0.00     0.183 C 
BRANCH 142 156
HETATM  156  O   UNL     1      18.378  58.707  21.304  1.00  0.00    -0.391 OA
HETATM  157  H   UNL     1      19.238  58.869  20.885  1.00  0.00     0.210 HD
ENDBRANCH 142 156
BRANCH 138 158
HETATM  158  O   UNL     1      19.660  60.970  20.475  1.00  0.00    -0.390 OA
HETATM  159  H   UNL     1      19.739  60.023  20.196  1.00  0.00     0.210 HD
ENDBRANCH 138 158
BRANCH 135 160
HETATM  160  O   UNL     1      19.446  64.072  22.648  1.00  0.00    -0.388 OA
HETATM  161  H   UNL     1      20.369  64.348  22.763  1.00  0.00     0.210 HD
ENDBRANCH 135 160
BRANCH 155 162
HETATM  162  O   UNL     1      20.566  65.504  20.373  1.00  0.00    -0.390 OA
HETATM  163  H   UNL     1      21.153  64.932  20.933  1.00  0.00     0.210 HD
ENDBRANCH 155 162
ENDBRANCH 128 129
ENDBRANCH   5 128
TORSDOF 61
ENDMDL
MODEL 7
REMARK VINA RESULT:      -6.2      2.074      3.795
REMARK WARNING: 32 MAX_TORS EXCEEDED!!!
REMARK  61 active torsions:
REMARK  status: ('A' for Active; 'I' for Inactive)
REMARK    1  A    between atoms: C_1  and  O_30 
REMARK    2  A    between atoms: C_2  and  C_6 
REMARK    3  A    between atoms: C_3  and  O_9 
REMARK    4  A    between atoms: C_4  and  O_11 
REMARK    5  A    between atoms: C_5  and  O_12 
REMARK    6  A    between atoms: C_6  and  O_7 
REMARK    7  A    between atoms: O_7  and  C_147 
REMARK    8  A    between atoms: O_11  and  C_107 
REMARK    9  A    between atoms: O_12  and  C_20 
REMARK   10  A    between atoms: O_14  and  C_18 
REMARK   11  A    between atoms: O_21  and  C_24 
REMARK   12  A    between atoms: O_26  and  C_29 
REMARK   13  A    between atoms: C_28  and  C_34 
REMARK   14  A    between atoms: O_30  and  C_33 
REMARK   15  A    between atoms: C_31  and  O_53 
REMARK   16  A    between atoms: O_32  and  C_35 
REMARK   17  A    between atoms: C_34  and  O_59 
REMARK   18  A    between atoms: O_37  and  C_41 
REMARK   19  A    between atoms: O_43  and  C_46 
REMARK   20  A    between atoms: O_48  and  C_52 
REMARK   21  A    between atoms: C_50  and  C_57 
REMARK   22  A    between atoms: O_51  and  C_57 
REMARK   23  A    between atoms: O_51  and  C_60 
REMARK   24  A    between atoms: O_53  and  C_56 
REMARK   25  A    between atoms: O_55  and  C_58 
REMARK   26  A    between atoms: O_55  and  C_61 
REMARK   27  A    between atoms: O_59  and  C_142 
REMARK   28  A    between atoms: C_60  and  C_137 
REMARK   29  A    between atoms: C_61  and  C_62 
REMARK   30  A    between atoms: C_62  and  C_63 
REMARK   31  A    between atoms: C_62  and  N_76 
REMARK   32  A    between atoms: C_63  and  C_64 
REMARK   33  A    between atoms: C_64  and  C_65 
REMARK   34  A    between atoms: C_64  and  N_90 
REMARK   35  A    between atoms: C_65  and  C_66 
REMARK   36  A    between atoms: C_66  and  C_67 
REMARK   37  A    between atoms: C_66  and  N_80 
REMARK   38  A    between atoms: C_67  and  C_68 
REMARK   39  A    between atoms: C_68  and  C_69 
REMARK   40  A    between atoms: C_68  and  N_95 
REMARK   41  A    between atoms: C_69  and  C_70 
REMARK   42  A    between atoms: C_70  and  N_85 
REMARK   43  A    between atoms: N_102  and  C_108 
REMARK   44  A    between atoms: C_107  and  C_108 
REMARK   45  A    between atoms: C_108  and  C_115 
REMARK   46  A    between atoms: N_111  and  C_117 
REMARK   47  A    between atoms: C_113  and  C_117 
REMARK   48  A    between atoms: C_113  and  C_119 
REMARK   49  A    between atoms: N_114  and  C_124 
REMARK   50  A    between atoms: C_115  and  C_119 
REMARK   51  A    between atoms: C_117  and  C_121 
REMARK   52  A    between atoms: N_118  and  C_119 
REMARK   53  A    between atoms: C_121  and  C_126 
REMARK   54  A    between atoms: C_124  and  C_125 
REMARK   55  A    between atoms: C_125  and  C_126 
REMARK   56  A    between atoms: C_126  and  N_129 
REMARK   57  A    between atoms: C_137  and  O_139 
REMARK   58  A    between atoms: C_142  and  C_144 
REMARK   59  A    between atoms: O_143  and  C_144 
REMARK   60  A    between atoms: C_147  and  C_149 
REMARK   61  A    between atoms: O_148  and  C_149 
ROOT
HETATM    1  C   UNL     1      25.219  70.750  26.566  1.00  0.00     0.187 C 
HETATM    2  C   UNL     1      25.211  69.430  25.715  1.00  0.00     0.180 C 
HETATM    3  C   UNL     1      24.161  71.768  26.076  1.00  0.00     0.183 C 
HETATM    4  C   UNL     1      22.788  71.071  25.829  1.00  0.00     0.208 C 
HETATM    5  C   UNL     1      23.119  69.984  24.776  1.00  0.00     0.292 C 
HETATM    6  O   UNL     1      23.889  68.962  25.393  1.00  0.00    -0.348 OA
ENDROOT
BRANCH   1   7
HETATM    7  O   UNL     1      24.952  70.445  27.924  1.00  0.00    -0.348 OA
BRANCH   7   8
HETATM    8  C   UNL     1      26.062  70.680  28.795  1.00  0.00     0.292 C 
HETATM    9  O   UNL     1      27.166  71.088  28.013  1.00  0.00    -0.348 OA
HETATM   10  C   UNL     1      28.325  71.429  28.787  1.00  0.00     0.180 C 
HETATM   11  C   UNL     1      28.483  70.628  30.123  1.00  0.00     0.187 C 
HETATM   12  C   UNL     1      27.883  69.239  29.920  1.00  0.00     0.183 C 
HETATM   13  C   UNL     1      26.367  69.395  29.627  1.00  0.00     0.204 C 
BRANCH  10  14
HETATM   14  C   UNL     1      28.406  72.943  29.022  1.00  0.00     0.203 C 
BRANCH  14  15
HETATM   15  O   UNL     1      27.153  73.526  28.740  1.00  0.00    -0.379 OA
BRANCH  15  16
HETATM   16  C   UNL     1      26.788  74.394  29.789  1.00  0.00     0.281 C 
BRANCH  16  17
HETATM   17  C   UNL     1      25.305  74.592  29.751  1.00  0.00     0.313 C 
HETATM   18  O   UNL     1      24.554  73.635  29.659  1.00  0.00    -0.260 OA
BRANCH  17  19
HETATM   19  O   UNL     1      24.794  75.837  29.818  1.00  0.00    -0.148 OA
HETATM   20 Na   UNL     1      24.586  76.737  31.610  1.00  0.00     0.000 Na
ENDBRANCH  17  19
ENDBRANCH  16  17
ENDBRANCH  15  16
ENDBRANCH  14  15
ENDBRANCH  10  14
BRANCH  11  21
HETATM   21  O   UNL     1      29.859  70.488  30.443  1.00  0.00    -0.348 OA
BRANCH  21  22
HETATM   22  C   UNL     1      30.214  70.931  31.741  1.00  0.00     0.292 C 
HETATM   23  O   UNL     1      29.451  72.102  32.017  1.00  0.00    -0.351 OA
HETATM   24  C   UNL     1      29.881  72.876  33.143  1.00  0.00     0.151 C 
HETATM   25  C   UNL     1      30.880  72.135  34.061  1.00  0.00     0.068 C 
HETATM   26  C   UNL     1      32.109  71.629  33.265  1.00  0.00     0.154 C 
HETATM   27  C   UNL     1      31.744  71.218  31.804  1.00  0.00     0.205 C 
BRANCH  24  28
HETATM   28  C   UNL     1      28.637  73.274  33.950  1.00  0.00     0.200 C 
BRANCH  28  29
HETATM   29  O   UNL     1      27.778  74.045  33.134  1.00  0.00    -0.379 OA
BRANCH  29  30
HETATM   30  C   UNL     1      26.743  74.604  33.917  1.00  0.00     0.281 C 
BRANCH  30  31
HETATM   31  C   UNL     1      25.425  74.122  33.391  1.00  0.00     0.313 C 
HETATM   32  O   UNL     1      24.523  74.915  33.172  1.00  0.00    -0.260 OA
BRANCH  31  33
HETATM   33  O   UNL     1      25.229  72.811  33.156  1.00  0.00    -0.148 OA
HETATM   34 Na   UNL     1      25.586  72.033  31.333  1.00  0.00     0.000 Na
ENDBRANCH  31  33
ENDBRANCH  30  31
ENDBRANCH  29  30
ENDBRANCH  28  29
ENDBRANCH  24  28
BRANCH  26  35
HETATM   35  O   UNL     1      33.189  72.532  33.294  1.00  0.00    -0.393 OA
HETATM   36  H   UNL     1      33.128  73.116  32.493  1.00  0.00     0.210 HD
ENDBRANCH  26  35
BRANCH  27  37
HETATM   37  O   UNL     1      32.178  72.276  30.857  1.00  0.00    -0.376 OA
BRANCH  37  38
HETATM   38  C   UNL     1      33.430  72.017  30.116  1.00  0.00     0.194 C 
BRANCH  38  39
HETATM   39  C   UNL     1      33.448  70.613  29.439  1.00  0.00     0.116 C 
BRANCH  39  40
HETATM   40  C   UNL     1      34.942  70.278  29.028  1.00  0.00     0.053 C 
BRANCH  40  41
HETATM   41  C   UNL     1      36.048  70.032  30.117  1.00  0.00     0.094 C 
BRANCH  41  42
HETATM   42  C   UNL     1      35.661  68.737  30.951  1.00  0.00     0.051 C 
BRANCH  42  43
HETATM   43  C   UNL     1      34.889  67.503  30.361  1.00  0.00     0.094 C 
BRANCH  43  44
HETATM   44  C   UNL     1      35.826  66.259  30.230  1.00  0.00     0.051 C 
BRANCH  44  45
HETATM   45  C   UNL     1      36.997  66.303  31.242  1.00  0.00     0.094 C 
BRANCH  45  46
HETATM   46  C   UNL     1      37.019  65.179  32.329  1.00  0.00     0.051 C 
BRANCH  46  47
HETATM   47  C   UNL     1      37.819  65.372  33.653  1.00  0.00     0.089 C 
HETATM   48  C   UNL     1      36.861  65.281  34.852  1.00  0.00     0.033 C 
BRANCH  47  49
HETATM   49  N   UNL     1      38.898  64.418  33.853  1.00  0.00    -0.334 N 
HETATM   50  C   UNL     1      40.031  64.279  33.029  1.00  0.00     0.210 A 
HETATM   51  N   UNL     1      40.837  63.399  33.485  1.00  0.00    -0.254 NA
HETATM   52  C   UNL     1      40.261  62.908  34.679  1.00  0.00     0.150 A 
HETATM   53  C   UNL     1      39.102  63.517  34.917  1.00  0.00     0.082 A 
ENDBRANCH  47  49
ENDBRANCH  46  47
ENDBRANCH  45  46
BRANCH  45  54
HETATM   54  N   UNL     1      38.281  66.356  30.491  1.00  0.00    -0.339 N 
HETATM   55  C   UNL     1      38.571  65.644  29.377  1.00  0.00     0.209 A 
HETATM   56  N   UNL     1      39.795  65.923  28.886  1.00  0.00    -0.254 NA
HETATM   57  C   UNL     1      40.297  66.850  29.718  1.00  0.00     0.142 A 
HETATM   58  C   UNL     1      39.371  67.124  30.705  1.00  0.00     0.026 A 
HETATM   59  C   UNL     1      39.594  68.119  31.800  1.00  0.00     0.070 C 
ENDBRANCH  45  54
ENDBRANCH  44  45
ENDBRANCH  43  44
BRANCH  43  60
HETATM   60  N   UNL     1      33.754  67.109  31.215  1.00  0.00    -0.345 N 
HETATM   61  C   UNL     1      32.461  67.461  31.058  1.00  0.00     0.209 A 
HETATM   62  N   UNL     1      31.662  66.893  31.982  1.00  0.00    -0.255 NA
HETATM   63  C   UNL     1      32.487  66.143  32.739  1.00  0.00     0.135 A 
HETATM   64  C   UNL     1      33.773  66.263  32.263  1.00  0.00     0.111 A 
ENDBRANCH  43  60
ENDBRANCH  42  43
ENDBRANCH  41  42
BRANCH  41  65
HETATM   65  N   UNL     1      37.439  70.158  29.628  1.00  0.00    -0.339 N 
HETATM   66  C   UNL     1      38.301  71.207  30.010  1.00  0.00     0.209 A 
HETATM   67  N   UNL     1      39.517  71.170  29.313  1.00  0.00    -0.254 NA
HETATM   68  C   UNL     1      39.342  70.136  28.383  1.00  0.00     0.142 A 
HETATM   69  C   UNL     1      38.141  69.568  28.513  1.00  0.00     0.026 A 
HETATM   70  C   UNL     1      37.672  68.551  27.501  1.00  0.00     0.070 C 
ENDBRANCH  41  65
ENDBRANCH  40  41
ENDBRANCH  39  40
BRANCH  39  71
HETATM   71  N   UNL     1      32.413  70.457  28.380  1.00  0.00    -0.343 N 
HETATM   72  C   UNL     1      31.887  71.393  27.553  1.00  0.00     0.111 A 
HETATM   73  C   UNL     1      30.934  70.799  26.760  1.00  0.00     0.135 A 
HETATM   74  N   UNL     1      30.832  69.502  27.093  1.00  0.00    -0.255 NA
HETATM   75  C   UNL     1      31.727  69.329  28.083  1.00  0.00     0.209 A 
ENDBRANCH  39  71
ENDBRANCH  38  39
ENDBRANCH  37  38
ENDBRANCH  27  37
ENDBRANCH  21  22
ENDBRANCH  11  21
BRANCH  12  76
HETATM   76  O   UNL     1      28.578  68.546  28.904  1.00  0.00    -0.390 OA
HETATM   77  H   UNL     1      29.551  68.715  28.992  1.00  0.00     0.210 HD
ENDBRANCH  12  76
BRANCH  13  78
HETATM   78  O   UNL     1      25.843  68.178  29.020  1.00  0.00    -0.388 OA
HETATM   79  H   UNL     1      26.276  67.406  29.416  1.00  0.00     0.210 HD
ENDBRANCH  13  78
ENDBRANCH   7   8
ENDBRANCH   1   7
BRANCH   2  80
HETATM   80  C   UNL     1      26.127  69.514  24.466  1.00  0.00     0.203 C 
BRANCH  80  81
HETATM   81  O   UNL     1      27.108  68.495  24.501  1.00  0.00    -0.379 OA
BRANCH  81  82
HETATM   82  C   UNL     1      27.501  68.201  25.824  1.00  0.00     0.281 C 
BRANCH  82  83
HETATM   83  C   UNL     1      27.836  66.743  25.906  1.00  0.00     0.313 C 
HETATM   84  O   UNL     1      27.536  65.997  24.987  1.00  0.00    -0.260 OA
BRANCH  83  85
HETATM   85  O   UNL     1      28.464  66.244  26.988  1.00  0.00    -0.148 OA
HETATM   86 Na   UNL     1      30.164  67.060  27.696  1.00  0.00     0.000 Na
ENDBRANCH  83  85
ENDBRANCH  82  83
ENDBRANCH  81  82
ENDBRANCH  80  81
ENDBRANCH   2  80
BRANCH   3  87
HETATM   87  O   UNL     1      24.049  72.830  26.988  1.00  0.00    -0.390 OA
HETATM   88  H   UNL     1      24.966  73.177  27.139  1.00  0.00     0.210 HD
ENDBRANCH   3  87
BRANCH   4  89
HETATM   89  O   UNL     1      22.222  70.542  27.108  1.00  0.00    -0.376 OA
BRANCH  89  90
HETATM   90  C   UNL     1      20.833  70.945  27.419  1.00  0.00     0.194 C 
BRANCH  90  91
HETATM   91  C   UNL     1      20.011  69.883  28.259  1.00  0.00     0.116 C 
BRANCH  91  92
HETATM   92  N   UNL     1      18.923  69.266  27.459  1.00  0.00    -0.343 N 
HETATM   93  C   UNL     1      18.053  68.302  27.835  1.00  0.00     0.111 A 
HETATM   94  C   UNL     1      17.229  68.013  26.774  1.00  0.00     0.135 A 
HETATM   95  N   UNL     1      17.580  68.774  25.723  1.00  0.00    -0.255 NA
HETATM   96  C   UNL     1      18.614  69.519  26.165  1.00  0.00     0.209 A 
ENDBRANCH  91  92
BRANCH  91  97
HETATM   97  C   UNL     1      20.974  68.867  28.995  1.00  0.00     0.053 C 
BRANCH  97  98
HETATM   98  C   UNL     1      21.535  69.121  30.455  1.00  0.00     0.094 C 
BRANCH  98  99
HETATM   99  C   UNL     1      22.862  68.356  30.829  1.00  0.00     0.051 C 
BRANCH  99 100
HETATM  100  C   UNL     1      22.836  66.795  30.725  1.00  0.00     0.094 C 
BRANCH 100 101
HETATM  101  N   UNL     1      21.673  66.216  31.424  1.00  0.00    -0.345 N 
HETATM  102  C   UNL     1      21.475  66.171  32.756  1.00  0.00     0.111 A 
HETATM  103  C   UNL     1      20.287  65.517  32.992  1.00  0.00     0.135 A 
HETATM  104  N   UNL     1      19.748  65.141  31.817  1.00  0.00    -0.255 NA
HETATM  105  C   UNL     1      20.617  65.575  30.882  1.00  0.00     0.209 A 
ENDBRANCH 100 101
BRANCH 100 106
HETATM  106  C   UNL     1      24.132  66.106  31.277  1.00  0.00     0.051 C 
BRANCH 106 107
HETATM  107  C   UNL     1      24.567  64.922  30.368  1.00  0.00     0.094 C 
BRANCH 107 108
HETATM  108  C   UNL     1      24.115  64.980  28.872  1.00  0.00     0.051 C 
BRANCH 108 109
HETATM  109  C   UNL     1      23.146  63.900  28.300  1.00  0.00     0.089 C 
HETATM  110  C   UNL     1      22.797  62.889  29.405  1.00  0.00     0.033 C 
BRANCH 109 111
HETATM  111  N   UNL     1      21.908  64.406  27.730  1.00  0.00    -0.334 N 
HETATM  112  C   UNL     1      20.704  63.728  27.464  1.00  0.00     0.082 A 
HETATM  113  C   UNL     1      19.875  64.629  26.941  1.00  0.00     0.150 A 
HETATM  114  N   UNL     1      20.511  65.888  26.846  1.00  0.00    -0.254 NA
HETATM  115  C   UNL     1      21.690  65.731  27.307  1.00  0.00     0.210 A 
ENDBRANCH 109 111
ENDBRANCH 108 109
ENDBRANCH 107 108
BRANCH 107 116
HETATM  116  N   UNL     1      25.997  64.644  30.500  1.00  0.00    -0.339 N 
HETATM  117  C   UNL     1      27.035  65.237  29.754  1.00  0.00     0.209 A 
HETATM  118  N   UNL     1      28.286  64.772  30.198  1.00  0.00    -0.254 NA
HETATM  119  C   UNL     1      27.977  63.883  31.250  1.00  0.00     0.142 A 
HETATM  120  C   UNL     1      26.658  63.805  31.436  1.00  0.00     0.026 A 
HETATM  121  C   UNL     1      26.020  62.947  32.492  1.00  0.00     0.070 C 
ENDBRANCH 107 116
ENDBRANCH 106 107
ENDBRANCH 100 106
ENDBRANCH  99 100
ENDBRANCH  98  99
BRANCH  98 122
HETATM  122  N   UNL     1      21.363  70.461  31.059  1.00  0.00    -0.339 N 
HETATM  123  C   UNL     1      20.312  71.139  31.755  1.00  0.00     0.026 A 
HETATM  124  C   UNL     1      20.722  72.341  32.162  1.00  0.00     0.142 A 
HETATM  125  C   UNL     1      18.949  70.663  32.093  1.00  0.00     0.070 C 
HETATM  126  N   UNL     1      22.072  72.548  31.842  1.00  0.00    -0.254 NA
HETATM  127  C   UNL     1      22.454  71.353  31.214  1.00  0.00     0.209 A 
ENDBRANCH  98 122
ENDBRANCH  97  98
ENDBRANCH  91  97
ENDBRANCH  90  91
ENDBRANCH  89  90
ENDBRANCH   4  89
BRANCH   5 128
HETATM  128  O   UNL     1      21.952  69.464  24.116  1.00  0.00    -0.348 OA
BRANCH 128 129
HETATM  129  C   UNL     1      22.311  68.735  22.922  1.00  0.00     0.187 C 
HETATM  130  C   UNL     1      21.228  67.708  22.486  1.00  0.00     0.180 C 
HETATM  131  O   UNL     1      21.743  66.864  21.460  1.00  0.00    -0.348 OA
HETATM  132  C   UNL     1      20.787  66.820  23.657  1.00  0.00     0.203 C 
HETATM  133  C   UNL     1      22.117  67.574  20.285  1.00  0.00     0.292 C 
HETATM  134  O   UNL     1      20.954  67.935  19.540  1.00  0.00    -0.348 OA
HETATM  135  C   UNL     1      23.072  68.768  20.576  1.00  0.00     0.204 C 
HETATM  136  C   UNL     1      20.818  67.163  18.341  1.00  0.00     0.187 C 
HETATM  137  C   UNL     1      19.344  66.663  18.143  1.00  0.00     0.176 C 
HETATM  138  C   UNL     1      21.214  67.986  17.103  1.00  0.00     0.180 C 
HETATM  139  O   UNL     1      19.027  66.266  16.798  1.00  0.00    -0.378 OA
HETATM  140  C   UNL     1      19.002  65.530  19.135  1.00  0.00     0.203 C 
HETATM  141  C   UNL     1      20.166  65.880  16.060  1.00  0.00     0.202 C 
HETATM  142  C   UNL     1      21.130  67.074  15.836  1.00  0.00     0.173 C 
HETATM  143  O   UNL     1      17.744  64.919  18.897  1.00  0.00    -0.379 OA
HETATM  144  C   UNL     1      16.677  65.840  18.966  1.00  0.00     0.280 C 
HETATM  145  C   UNL     1      15.414  65.094  19.267  1.00  0.00     0.308 C 
HETATM  146  O   UNL     1      15.053  64.184  18.538  1.00  0.00    -0.261 OA
HETATM  147  O   UNL     1      14.662  65.432  20.331  1.00  0.00    -0.158 OA
HETATM  148 Na   UNL     1      15.151  67.026  21.461  1.00  0.00    -0.020 Na
HETATM  149 Na   UNL     1      15.605  67.519  24.044  1.00  0.00     0.080 Na
HETATM  150  O   UNL     1      16.150  65.665  23.467  1.00  0.00    -0.180 OA
HETATM  151  C   UNL     1      17.449  65.370  23.271  1.00  0.00     0.302 C 
HETATM  152  C   UNL     1      18.491  66.423  23.503  1.00  0.00     0.280 C 
HETATM  153  O   UNL     1      17.764  64.244  22.914  1.00  0.00    -0.261 OA
HETATM  154  O   UNL     1      19.785  65.902  23.253  1.00  0.00    -0.379 OA
HETATM  155  C   UNL     1      22.578  69.667  21.730  1.00  0.00     0.183 C 
BRANCH 142 156
HETATM  156  O   UNL     1      20.795  67.848  14.637  1.00  0.00    -0.391 OA
HETATM  157  H   UNL     1      21.574  68.349  14.346  1.00  0.00     0.210 HD
ENDBRANCH 142 156
BRANCH 138 158
HETATM  158  O   UNL     1      20.412  69.143  17.009  1.00  0.00    -0.390 OA
HETATM  159  H   UNL     1      19.657  68.972  16.391  1.00  0.00     0.210 HD
ENDBRANCH 138 158
BRANCH 135 160
HETATM  160  O   UNL     1      23.365  69.528  19.361  1.00  0.00    -0.388 OA
HETATM  161  H   UNL     1      22.951  69.091  18.599  1.00  0.00     0.210 HD
ENDBRANCH 135 160
BRANCH 155 162
HETATM  162  O   UNL     1      21.415  70.362  21.357  1.00  0.00    -0.390 OA
HETATM  163  H   UNL     1      21.274  71.067  22.040  1.00  0.00     0.210 HD
ENDBRANCH 155 162
ENDBRANCH 128 129
ENDBRANCH   5 128
TORSDOF 61
ENDMDL
MODEL 8
REMARK VINA RESULT:      -6.1      2.522      5.515
REMARK WARNING: 32 MAX_TORS EXCEEDED!!!
REMARK  61 active torsions:
REMARK  status: ('A' for Active; 'I' for Inactive)
REMARK    1  A    between atoms: C_1  and  O_30 
REMARK    2  A    between atoms: C_2  and  C_6 
REMARK    3  A    between atoms: C_3  and  O_9 
REMARK    4  A    between atoms: C_4  and  O_11 
REMARK    5  A    between atoms: C_5  and  O_12 
REMARK    6  A    between atoms: C_6  and  O_7 
REMARK    7  A    between atoms: O_7  and  C_147 
REMARK    8  A    between atoms: O_11  and  C_107 
REMARK    9  A    between atoms: O_12  and  C_20 
REMARK   10  A    between atoms: O_14  and  C_18 
REMARK   11  A    between atoms: O_21  and  C_24 
REMARK   12  A    between atoms: O_26  and  C_29 
REMARK   13  A    between atoms: C_28  and  C_34 
REMARK   14  A    between atoms: O_30  and  C_33 
REMARK   15  A    between atoms: C_31  and  O_53 
REMARK   16  A    between atoms: O_32  and  C_35 
REMARK   17  A    between atoms: C_34  and  O_59 
REMARK   18  A    between atoms: O_37  and  C_41 
REMARK   19  A    between atoms: O_43  and  C_46 
REMARK   20  A    between atoms: O_48  and  C_52 
REMARK   21  A    between atoms: C_50  and  C_57 
REMARK   22  A    between atoms: O_51  and  C_57 
REMARK   23  A    between atoms: O_51  and  C_60 
REMARK   24  A    between atoms: O_53  and  C_56 
REMARK   25  A    between atoms: O_55  and  C_58 
REMARK   26  A    between atoms: O_55  and  C_61 
REMARK   27  A    between atoms: O_59  and  C_142 
REMARK   28  A    between atoms: C_60  and  C_137 
REMARK   29  A    between atoms: C_61  and  C_62 
REMARK   30  A    between atoms: C_62  and  C_63 
REMARK   31  A    between atoms: C_62  and  N_76 
REMARK   32  A    between atoms: C_63  and  C_64 
REMARK   33  A    between atoms: C_64  and  C_65 
REMARK   34  A    between atoms: C_64  and  N_90 
REMARK   35  A    between atoms: C_65  and  C_66 
REMARK   36  A    between atoms: C_66  and  C_67 
REMARK   37  A    between atoms: C_66  and  N_80 
REMARK   38  A    between atoms: C_67  and  C_68 
REMARK   39  A    between atoms: C_68  and  C_69 
REMARK   40  A    between atoms: C_68  and  N_95 
REMARK   41  A    between atoms: C_69  and  C_70 
REMARK   42  A    between atoms: C_70  and  N_85 
REMARK   43  A    between atoms: N_102  and  C_108 
REMARK   44  A    between atoms: C_107  and  C_108 
REMARK   45  A    between atoms: C_108  and  C_115 
REMARK   46  A    between atoms: N_111  and  C_117 
REMARK   47  A    between atoms: C_113  and  C_117 
REMARK   48  A    between atoms: C_113  and  C_119 
REMARK   49  A    between atoms: N_114  and  C_124 
REMARK   50  A    between atoms: C_115  and  C_119 
REMARK   51  A    between atoms: C_117  and  C_121 
REMARK   52  A    between atoms: N_118  and  C_119 
REMARK   53  A    between atoms: C_121  and  C_126 
REMARK   54  A    between atoms: C_124  and  C_125 
REMARK   55  A    between atoms: C_125  and  C_126 
REMARK   56  A    between atoms: C_126  and  N_129 
REMARK   57  A    between atoms: C_137  and  O_139 
REMARK   58  A    between atoms: C_142  and  C_144 
REMARK   59  A    between atoms: O_143  and  C_144 
REMARK   60  A    between atoms: C_147  and  C_149 
REMARK   61  A    between atoms: O_148  and  C_149 
ROOT
HETATM    1  C   UNL     1      25.180  70.698  26.646  1.00  0.00     0.187 C 
HETATM    2  C   UNL     1      25.159  69.388  25.780  1.00  0.00     0.180 C 
HETATM    3  C   UNL     1      24.125  71.727  26.174  1.00  0.00     0.183 C 
HETATM    4  C   UNL     1      22.746  71.041  25.930  1.00  0.00     0.208 C 
HETATM    5  C   UNL     1      23.064  69.964  24.862  1.00  0.00     0.292 C 
HETATM    6  O   UNL     1      23.833  68.931  25.461  1.00  0.00    -0.348 OA
ENDROOT
BRANCH   1   7
HETATM    7  O   UNL     1      24.921  70.379  28.002  1.00  0.00    -0.348 OA
BRANCH   7   8
HETATM    8  C   UNL     1      26.051  70.558  28.860  1.00  0.00     0.292 C 
HETATM    9  O   UNL     1      27.116  71.085  28.095  1.00  0.00    -0.348 OA
HETATM   10  C   UNL     1      28.288  71.382  28.867  1.00  0.00     0.180 C 
HETATM   11  C   UNL     1      28.515  70.449  30.103  1.00  0.00     0.187 C 
HETATM   12  C   UNL     1      27.953  69.069  29.768  1.00  0.00     0.183 C 
HETATM   13  C   UNL     1      26.424  69.202  29.538  1.00  0.00     0.204 C 
BRANCH  10  14
HETATM   14  C   UNL     1      28.329  72.864  29.262  1.00  0.00     0.203 C 
BRANCH  14  15
HETATM   15  O   UNL     1      27.326  73.562  28.558  1.00  0.00    -0.379 OA
BRANCH  15  16
HETATM   16  C   UNL     1      26.787  74.573  29.379  1.00  0.00     0.281 C 
BRANCH  16  17
HETATM   17  C   UNL     1      25.715  73.974  30.234  1.00  0.00     0.313 C 
HETATM   18  O   UNL     1      25.808  73.996  31.451  1.00  0.00    -0.260 OA
BRANCH  17  19
HETATM   19  O   UNL     1      24.638  73.406  29.657  1.00  0.00    -0.148 OA
HETATM   20 Na   UNL     1      23.427  74.515  28.488  1.00  0.00     0.000 Na
ENDBRANCH  17  19
ENDBRANCH  16  17
ENDBRANCH  15  16
ENDBRANCH  14  15
ENDBRANCH  10  14
BRANCH  11  21
HETATM   21  O   UNL     1      29.905  70.323  30.366  1.00  0.00    -0.348 OA
BRANCH  21  22
HETATM   22  C   UNL     1      30.282  70.593  31.704  1.00  0.00     0.292 C 
HETATM   23  O   UNL     1      29.440  71.638  32.183  1.00  0.00    -0.351 OA
HETATM   24  C   UNL     1      29.856  72.267  33.401  1.00  0.00     0.151 C 
HETATM   25  C   UNL     1      30.954  71.486  34.160  1.00  0.00     0.068 C 
HETATM   26  C   UNL     1      32.182  71.215  33.255  1.00  0.00     0.154 C 
HETATM   27  C   UNL     1      31.784  71.000  31.760  1.00  0.00     0.205 C 
BRANCH  24  28
HETATM   28  C   UNL     1      28.623  72.428  34.300  1.00  0.00     0.200 C 
BRANCH  28  29
HETATM   29  O   UNL     1      27.895  73.569  33.895  1.00  0.00    -0.379 OA
BRANCH  29  30
HETATM   30  C   UNL     1      26.940  73.907  34.880  1.00  0.00     0.281 C 
BRANCH  30  31
HETATM   31  C   UNL     1      26.894  75.398  35.017  1.00  0.00     0.313 C 
HETATM   32  O   UNL     1      27.614  75.965  35.824  1.00  0.00    -0.260 OA
BRANCH  31  33
HETATM   33  O   UNL     1      26.058  76.122  34.249  1.00  0.00    -0.148 OA
HETATM   34 Na   UNL     1      24.663  75.215  33.115  1.00  0.00     0.000 Na
ENDBRANCH  31  33
ENDBRANCH  30  31
ENDBRANCH  29  30
ENDBRANCH  28  29
ENDBRANCH  24  28
BRANCH  26  35
HETATM   35  O   UNL     1      33.185  72.195  33.388  1.00  0.00    -0.393 OA
HETATM   36  H   UNL     1      33.105  72.827  32.626  1.00  0.00     0.210 HD
ENDBRANCH  26  35
BRANCH  27  37
HETATM   37  O   UNL     1      32.087  72.223  30.975  1.00  0.00    -0.376 OA
BRANCH  37  38
HETATM   38  C   UNL     1      33.297  72.174  30.128  1.00  0.00     0.194 C 
BRANCH  38  39
HETATM   39  C   UNL     1      33.457  70.812  29.387  1.00  0.00     0.116 C 
BRANCH  39  40
HETATM   40  C   UNL     1      34.969  70.666  28.935  1.00  0.00     0.053 C 
BRANCH  40  41
HETATM   41  C   UNL     1      36.113  70.440  29.989  1.00  0.00     0.094 C 
BRANCH  41  42
HETATM   42  C   UNL     1      35.681  69.260  30.962  1.00  0.00     0.051 C 
BRANCH  42  43
HETATM   43  C   UNL     1      35.320  67.808  30.486  1.00  0.00     0.094 C 
BRANCH  43  44
HETATM   44  C   UNL     1      36.491  66.812  30.768  1.00  0.00     0.051 C 
BRANCH  44  45
HETATM   45  C   UNL     1      37.470  67.353  31.840  1.00  0.00     0.094 C 
BRANCH  45  46
HETATM   46  C   UNL     1      37.532  66.562  33.188  1.00  0.00     0.051 C 
BRANCH  46  47
HETATM   47  C   UNL     1      37.503  67.317  34.551  1.00  0.00     0.089 C 
HETATM   48  C   UNL     1      38.937  67.488  35.077  1.00  0.00     0.033 C 
BRANCH  47  49
HETATM   49  N   UNL     1      36.871  68.626  34.504  1.00  0.00    -0.334 N 
HETATM   50  C   UNL     1      35.491  68.875  34.629  1.00  0.00     0.210 A 
HETATM   51  N   UNL     1      35.236  70.126  34.607  1.00  0.00    -0.254 NA
HETATM   52  C   UNL     1      36.480  70.786  34.473  1.00  0.00     0.150 A 
HETATM   53  C   UNL     1      37.470  69.899  34.419  1.00  0.00     0.082 A 
ENDBRANCH  47  49
ENDBRANCH  46  47
ENDBRANCH  45  46
BRANCH  45  54
HETATM   54  N   UNL     1      38.820  67.493  31.231  1.00  0.00    -0.339 N 
HETATM   55  C   UNL     1      39.697  68.493  31.480  1.00  0.00     0.209 A 
HETATM   56  N   UNL     1      40.861  68.342  30.817  1.00  0.00    -0.254 NA
HETATM   57  C   UNL     1      40.718  67.200  30.125  1.00  0.00     0.142 A 
HETATM   58  C   UNL     1      39.468  66.671  30.376  1.00  0.00     0.026 A 
HETATM   59  C   UNL     1      38.970  65.393  29.775  1.00  0.00     0.070 C 
ENDBRANCH  45  54
ENDBRANCH  44  45
ENDBRANCH  43  44
BRANCH  43  60
HETATM   60  N   UNL     1      34.126  67.289  31.176  1.00  0.00    -0.345 N 
HETATM   61  C   UNL     1      32.838  67.570  30.890  1.00  0.00     0.209 A 
HETATM   62  N   UNL     1      31.980  66.893  31.678  1.00  0.00    -0.255 NA
HETATM   63  C   UNL     1      32.764  66.146  32.481  1.00  0.00     0.135 A 
HETATM   64  C   UNL     1      34.084  66.377  32.167  1.00  0.00     0.111 A 
ENDBRANCH  43  60
ENDBRANCH  42  43
ENDBRANCH  41  42
BRANCH  41  65
HETATM   65  N   UNL     1      37.480  70.414  29.424  1.00  0.00    -0.339 N 
HETATM   66  C   UNL     1      38.397  71.477  29.568  1.00  0.00     0.209 A 
HETATM   67  N   UNL     1      39.573  71.260  28.837  1.00  0.00    -0.254 NA
HETATM   68  C   UNL     1      39.315  70.084  28.120  1.00  0.00     0.142 A 
HETATM   69  C   UNL     1      38.103  69.602  28.406  1.00  0.00     0.026 A 
HETATM   70  C   UNL     1      37.548  68.439  27.619  1.00  0.00     0.070 C 
ENDBRANCH  41  65
ENDBRANCH  40  41
ENDBRANCH  39  40
BRANCH  39  71
HETATM   71  N   UNL     1      32.422  70.587  28.341  1.00  0.00    -0.343 N 
HETATM   72  C   UNL     1      31.797  71.489  27.547  1.00  0.00     0.111 A 
HETATM   73  C   UNL     1      30.889  70.828  26.753  1.00  0.00     0.135 A 
HETATM   74  N   UNL     1      30.914  69.520  27.054  1.00  0.00    -0.255 NA
HETATM   75  C   UNL     1      31.839  69.407  28.025  1.00  0.00     0.209 A 
ENDBRANCH  39  71
ENDBRANCH  38  39
ENDBRANCH  37  38
ENDBRANCH  27  37
ENDBRANCH  21  22
ENDBRANCH  11  21
BRANCH  12  76
HETATM   76  O   UNL     1      28.636  68.514  28.664  1.00  0.00    -0.390 OA
HETATM   77  H   UNL     1      29.610  68.671  28.761  1.00  0.00     0.210 HD
ENDBRANCH  12  76
BRANCH  13  78
HETATM   78  O   UNL     1      25.919  68.040  28.818  1.00  0.00    -0.388 OA
HETATM   79  H   UNL     1      25.502  68.328  27.992  1.00  0.00     0.210 HD
ENDBRANCH  13  78
ENDBRANCH   7   8
ENDBRANCH   1   7
BRANCH   2  80
HETATM   80  C   UNL     1      26.066  69.481  24.525  1.00  0.00     0.203 C 
BRANCH  80  81
HETATM   81  O   UNL     1      26.924  68.358  24.448  1.00  0.00    -0.379 OA
BRANCH  81  82
HETATM   82  C   UNL     1      27.699  68.218  25.618  1.00  0.00     0.281 C 
BRANCH  82  83
HETATM   83  C   UNL     1      27.693  66.776  26.022  1.00  0.00     0.313 C 
HETATM   84  O   UNL     1      26.649  66.142  26.001  1.00  0.00    -0.260 OA
BRANCH  83  85
HETATM   85  O   UNL     1      28.831  66.167  26.410  1.00  0.00    -0.148 OA
HETATM   86 Na   UNL     1      30.161  67.080  27.616  1.00  0.00     0.000 Na
ENDBRANCH  83  85
ENDBRANCH  82  83
ENDBRANCH  81  82
ENDBRANCH  80  81
ENDBRANCH   2  80
BRANCH   3  87
HETATM   87  O   UNL     1      24.025  72.780  27.099  1.00  0.00    -0.390 OA
HETATM   88  H   UNL     1      23.830  72.369  27.981  1.00  0.00     0.210 HD
ENDBRANCH   3  87
BRANCH   4  89
HETATM   89  O   UNL     1      22.187  70.501  27.207  1.00  0.00    -0.376 OA
BRANCH  89  90
HETATM   90  C   UNL     1      21.012  71.215  27.754  1.00  0.00     0.194 C 
BRANCH  90  91
HETATM   91  C   UNL     1      20.585  70.761  29.210  1.00  0.00     0.116 C 
BRANCH  91  92
HETATM   92  N   UNL     1      20.715  71.864  30.195  1.00  0.00    -0.343 N 
HETATM   93  C   UNL     1      19.738  72.469  30.905  1.00  0.00     0.111 A 
HETATM   94  C   UNL     1      20.301  73.454  31.681  1.00  0.00     0.135 A 
HETATM   95  N   UNL     1      21.625  73.489  31.456  1.00  0.00    -0.255 NA
HETATM   96  C   UNL     1      21.848  72.519  30.546  1.00  0.00     0.209 A 
ENDBRANCH  91  92
BRANCH  91  97
HETATM   97  C   UNL     1      19.185  70.026  29.193  1.00  0.00     0.053 C 
BRANCH  97  98
HETATM   98  C   UNL     1      18.912  68.717  28.342  1.00  0.00     0.094 C 
BRANCH  98  99
HETATM   99  C   UNL     1      18.067  68.912  27.026  1.00  0.00     0.051 C 
BRANCH  99 100
HETATM  100  C   UNL     1      16.862  69.908  27.095  1.00  0.00     0.094 C 
BRANCH 100 101
HETATM  101  N   UNL     1      15.940  69.580  28.199  1.00  0.00    -0.345 N 
HETATM  102  C   UNL     1      15.225  68.447  28.341  1.00  0.00     0.111 A 
HETATM  103  C   UNL     1      14.467  68.558  29.484  1.00  0.00     0.135 A 
HETATM  104  N   UNL     1      14.693  69.759  30.051  1.00  0.00    -0.255 NA
HETATM  105  C   UNL     1      15.589  70.359  29.242  1.00  0.00     0.209 A 
ENDBRANCH 100 101
BRANCH 100 106
HETATM  106  C   UNL     1      16.031  69.984  25.768  1.00  0.00     0.051 C 
BRANCH 106 107
HETATM  107  C   UNL     1      16.498  71.172  24.882  1.00  0.00     0.094 C 
BRANCH 107 108
HETATM  108  C   UNL     1      17.411  72.243  25.565  1.00  0.00     0.051 C 
BRANCH 108 109
HETATM  109  C   UNL     1      16.933  73.723  25.686  1.00  0.00     0.089 C 
HETATM  110  C   UNL     1      15.461  73.823  25.251  1.00  0.00     0.033 C 
BRANCH 109 111
HETATM  111  N   UNL     1      17.066  74.320  27.005  1.00  0.00    -0.334 N 
HETATM  112  C   UNL     1      17.309  73.700  28.245  1.00  0.00     0.082 A 
HETATM  113  C   UNL     1      17.343  74.676  29.150  1.00  0.00     0.150 A 
HETATM  114  N   UNL     1      17.118  75.929  28.534  1.00  0.00    -0.254 NA
HETATM  115  C   UNL     1      16.957  75.694  27.290  1.00  0.00     0.210 A 
ENDBRANCH 109 111
ENDBRANCH 108 109
ENDBRANCH 107 108
BRANCH 107 116
HETATM  116  N   UNL     1      17.052  70.707  23.611  1.00  0.00    -0.339 N 
HETATM  117  C   UNL     1      18.418  70.526  23.312  1.00  0.00     0.209 A 
HETATM  118  N   UNL     1      18.572  70.007  22.015  1.00  0.00    -0.254 NA
HETATM  119  C   UNL     1      17.251  69.865  21.534  1.00  0.00     0.142 A 
HETATM  120  C   UNL     1      16.366  70.262  22.450  1.00  0.00     0.026 A 
HETATM  121  C   UNL     1      14.879  70.222  22.236  1.00  0.00     0.070 C 
ENDBRANCH 107 116
ENDBRANCH 106 107
ENDBRANCH 100 106
ENDBRANCH  99 100
ENDBRANCH  98  99
BRANCH  98 122
HETATM  122  N   UNL     1      19.956  67.669  28.298  1.00  0.00    -0.339 N 
HETATM  123  C   UNL     1      20.382  66.617  29.169  1.00  0.00     0.026 A 
HETATM  124  C   UNL     1      21.344  65.895  28.593  1.00  0.00     0.142 A 
HETATM  125  C   UNL     1      19.870  66.241  30.509  1.00  0.00     0.070 C 
HETATM  126  N   UNL     1      21.599  66.344  27.289  1.00  0.00    -0.254 NA
HETATM  127  C   UNL     1      20.691  67.400  27.116  1.00  0.00     0.209 A 
ENDBRANCH  98 122
ENDBRANCH  97  98
ENDBRANCH  91  97
ENDBRANCH  90  91
ENDBRANCH  89  90
ENDBRANCH   4  89
BRANCH   5 128
HETATM  128  O   UNL     1      21.889  69.458  24.204  1.00  0.00    -0.348 OA
BRANCH 128 129
HETATM  129  C   UNL     1      22.238  68.711  23.019  1.00  0.00     0.187 C 
HETATM  130  C   UNL     1      21.126  67.718  22.575  1.00  0.00     0.180 C 
HETATM  131  O   UNL     1      21.625  66.851  21.560  1.00  0.00    -0.348 OA
HETATM  132  C   UNL     1      20.643  66.851  23.746  1.00  0.00     0.203 C 
HETATM  133  C   UNL     1      22.036  67.541  20.386  1.00  0.00     0.292 C 
HETATM  134  O   UNL     1      20.894  67.936  19.625  1.00  0.00    -0.348 OA
HETATM  135  C   UNL     1      23.026  68.705  20.682  1.00  0.00     0.204 C 
HETATM  136  C   UNL     1      20.747  67.161  18.429  1.00  0.00     0.187 C 
HETATM  137  C   UNL     1      19.259  66.709  18.217  1.00  0.00     0.176 C 
HETATM  138  C   UNL     1      21.183  67.964  17.191  1.00  0.00     0.180 C 
HETATM  139  O   UNL     1      18.945  66.315  16.870  1.00  0.00    -0.378 OA
HETATM  140  C   UNL     1      18.869  65.593  19.211  1.00  0.00     0.203 C 
HETATM  141  C   UNL     1      20.079  65.887  16.148  1.00  0.00     0.202 C 
HETATM  142  C   UNL     1      21.084  67.048  15.928  1.00  0.00     0.173 C 
HETATM  143  O   UNL     1      17.595  65.023  18.962  1.00  0.00    -0.379 OA
HETATM  144  C   UNL     1      16.557  65.978  19.013  1.00  0.00     0.280 C 
HETATM  145  C   UNL     1      15.267  65.276  19.304  1.00  0.00     0.308 C 
HETATM  146  O   UNL     1      14.885  64.374  18.575  1.00  0.00    -0.261 OA
HETATM  147  O   UNL     1      14.514  65.644  20.357  1.00  0.00    -0.158 OA
HETATM  148 Na   UNL     1      15.042  67.227  21.484  1.00  0.00    -0.020 Na
HETATM  149 Na   UNL     1      15.482  67.721  24.069  1.00  0.00     0.080 Na
HETATM  150  O   UNL     1      15.974  65.847  23.509  1.00  0.00    -0.180 OA
HETATM  151  C   UNL     1      17.265  65.508  23.329  1.00  0.00     0.302 C 
HETATM  152  C   UNL     1      18.337  66.528  23.568  1.00  0.00     0.280 C 
HETATM  153  O   UNL     1      17.546  64.371  22.982  1.00  0.00    -0.261 OA
HETATM  154  O   UNL     1      19.617  65.963  23.336  1.00  0.00    -0.379 OA
HETATM  155  C   UNL     1      22.548  69.626  21.825  1.00  0.00     0.183 C 
BRANCH 142 156
HETATM  156  O   UNL     1      20.788  67.826  14.721  1.00  0.00    -0.391 OA
HETATM  157  H   UNL     1      21.586  68.299  14.437  1.00  0.00     0.210 HD
ENDBRANCH 142 156
BRANCH 138 158
HETATM  158  O   UNL     1      20.420  69.146  17.082  1.00  0.00    -0.390 OA
HETATM  159  H   UNL     1      19.668  68.996  16.456  1.00  0.00     0.210 HD
ENDBRANCH 138 158
BRANCH 135 160
HETATM  160  O   UNL     1      23.357  69.448  19.466  1.00  0.00    -0.388 OA
HETATM  161  H   UNL     1      22.938  69.021  18.702  1.00  0.00     0.210 HD
ENDBRANCH 135 160
BRANCH 155 162
HETATM  162  O   UNL     1      21.413  70.357  21.434  1.00  0.00    -0.390 OA
HETATM  163  H   UNL     1      21.665  71.316  21.476  1.00  0.00     0.210 HD
ENDBRANCH 155 162
ENDBRANCH 128 129
ENDBRANCH   5 128
TORSDOF 61
ENDMDL
MODEL 9
REMARK VINA RESULT:      -6.1      3.874      8.216
REMARK WARNING: 32 MAX_TORS EXCEEDED!!!
REMARK  61 active torsions:
REMARK  status: ('A' for Active; 'I' for Inactive)
REMARK    1  A    between atoms: C_1  and  O_30 
REMARK    2  A    between atoms: C_2  and  C_6 
REMARK    3  A    between atoms: C_3  and  O_9 
REMARK    4  A    between atoms: C_4  and  O_11 
REMARK    5  A    between atoms: C_5  and  O_12 
REMARK    6  A    between atoms: C_6  and  O_7 
REMARK    7  A    between atoms: O_7  and  C_147 
REMARK    8  A    between atoms: O_11  and  C_107 
REMARK    9  A    between atoms: O_12  and  C_20 
REMARK   10  A    between atoms: O_14  and  C_18 
REMARK   11  A    between atoms: O_21  and  C_24 
REMARK   12  A    between atoms: O_26  and  C_29 
REMARK   13  A    between atoms: C_28  and  C_34 
REMARK   14  A    between atoms: O_30  and  C_33 
REMARK   15  A    between atoms: C_31  and  O_53 
REMARK   16  A    between atoms: O_32  and  C_35 
REMARK   17  A    between atoms: C_34  and  O_59 
REMARK   18  A    between atoms: O_37  and  C_41 
REMARK   19  A    between atoms: O_43  and  C_46 
REMARK   20  A    between atoms: O_48  and  C_52 
REMARK   21  A    between atoms: C_50  and  C_57 
REMARK   22  A    between atoms: O_51  and  C_57 
REMARK   23  A    between atoms: O_51  and  C_60 
REMARK   24  A    between atoms: O_53  and  C_56 
REMARK   25  A    between atoms: O_55  and  C_58 
REMARK   26  A    between atoms: O_55  and  C_61 
REMARK   27  A    between atoms: O_59  and  C_142 
REMARK   28  A    between atoms: C_60  and  C_137 
REMARK   29  A    between atoms: C_61  and  C_62 
REMARK   30  A    between atoms: C_62  and  C_63 
REMARK   31  A    between atoms: C_62  and  N_76 
REMARK   32  A    between atoms: C_63  and  C_64 
REMARK   33  A    between atoms: C_64  and  C_65 
REMARK   34  A    between atoms: C_64  and  N_90 
REMARK   35  A    between atoms: C_65  and  C_66 
REMARK   36  A    between atoms: C_66  and  C_67 
REMARK   37  A    between atoms: C_66  and  N_80 
REMARK   38  A    between atoms: C_67  and  C_68 
REMARK   39  A    between atoms: C_68  and  C_69 
REMARK   40  A    between atoms: C_68  and  N_95 
REMARK   41  A    between atoms: C_69  and  C_70 
REMARK   42  A    between atoms: C_70  and  N_85 
REMARK   43  A    between atoms: N_102  and  C_108 
REMARK   44  A    between atoms: C_107  and  C_108 
REMARK   45  A    between atoms: C_108  and  C_115 
REMARK   46  A    between atoms: N_111  and  C_117 
REMARK   47  A    between atoms: C_113  and  C_117 
REMARK   48  A    between atoms: C_113  and  C_119 
REMARK   49  A    between atoms: N_114  and  C_124 
REMARK   50  A    between atoms: C_115  and  C_119 
REMARK   51  A    between atoms: C_117  and  C_121 
REMARK   52  A    between atoms: N_118  and  C_119 
REMARK   53  A    between atoms: C_121  and  C_126 
REMARK   54  A    between atoms: C_124  and  C_125 
REMARK   55  A    between atoms: C_125  and  C_126 
REMARK   56  A    between atoms: C_126  and  N_129 
REMARK   57  A    between atoms: C_137  and  O_139 
REMARK   58  A    between atoms: C_142  and  C_144 
REMARK   59  A    between atoms: O_143  and  C_144 
REMARK   60  A    between atoms: C_147  and  C_149 
REMARK   61  A    between atoms: O_148  and  C_149 
ROOT
HETATM    1  C   UNL     1      21.357  70.064  23.120  1.00  0.00     0.187 C 
HETATM    2  C   UNL     1      22.048  69.054  22.135  1.00  0.00     0.180 C 
HETATM    3  C   UNL     1      20.066  70.674  22.520  1.00  0.00     0.183 C 
HETATM    4  C   UNL     1      19.177  69.570  21.869  1.00  0.00     0.208 C 
HETATM    5  C   UNL     1      20.107  68.943  20.800  1.00  0.00     0.292 C 
HETATM    6  O   UNL     1      21.122  68.193  21.452  1.00  0.00    -0.348 OA
ENDROOT
BRANCH   1   7
HETATM    7  O   UNL     1      21.021  69.401  24.326  1.00  0.00    -0.348 OA
BRANCH   7   8
HETATM    8  C   UNL     1      21.879  69.733  25.421  1.00  0.00     0.292 C 
HETATM    9  O   UNL     1      23.039  68.930  25.341  1.00  0.00    -0.348 OA
HETATM   10  C   UNL     1      24.016  69.227  26.349  1.00  0.00     0.180 C 
HETATM   11  C   UNL     1      23.426  69.728  27.710  1.00  0.00     0.187 C 
HETATM   12  C   UNL     1      22.062  69.070  27.908  1.00  0.00     0.183 C 
HETATM   13  C   UNL     1      21.118  69.540  26.771  1.00  0.00     0.204 C 
BRANCH  10  14
HETATM   14  C   UNL     1      25.090  70.181  25.812  1.00  0.00     0.203 C 
BRANCH  14  15
HETATM   15  O   UNL     1      26.225  70.121  26.648  1.00  0.00    -0.379 OA
BRANCH  15  16
HETATM   16  C   UNL     1      26.821  68.846  26.546  1.00  0.00     0.281 C 
BRANCH  16  17
HETATM   17  C   UNL     1      27.566  68.770  25.251  1.00  0.00     0.313 C 
HETATM   18  O   UNL     1      28.610  69.384  25.099  1.00  0.00    -0.260 OA
BRANCH  17  19
HETATM   19  O   UNL     1      27.083  68.017  24.243  1.00  0.00    -0.148 OA
HETATM   20 Na   UNL     1      25.662  68.768  23.027  1.00  0.00     0.000 Na
ENDBRANCH  17  19
ENDBRANCH  16  17
ENDBRANCH  15  16
ENDBRANCH  14  15
ENDBRANCH  10  14
BRANCH  11  21
HETATM   21  O   UNL     1      24.278  69.342  28.778  1.00  0.00    -0.348 OA
BRANCH  21  22
HETATM   22  C   UNL     1      24.495  70.344  29.754  1.00  0.00     0.292 C 
HETATM   23  O   UNL     1      24.871  71.535  29.070  1.00  0.00    -0.351 OA
HETATM   24  C   UNL     1      25.430  72.574  29.884  1.00  0.00     0.151 C 
HETATM   25  C   UNL     1      25.216  72.357  31.400  1.00  0.00     0.068 C 
HETATM   26  C   UNL     1      25.757  70.977  31.854  1.00  0.00     0.154 C 
HETATM   27  C   UNL     1      25.601  69.884  30.750  1.00  0.00     0.205 C 
BRANCH  24  28
HETATM   28  C   UNL     1      24.794  73.905  29.459  1.00  0.00     0.200 C 
BRANCH  28  29
HETATM   29  O   UNL     1      25.432  74.965  30.142  1.00  0.00    -0.379 OA
BRANCH  29  30
HETATM   30  C   UNL     1      24.639  76.133  30.067  1.00  0.00     0.281 C 
BRANCH  30  31
HETATM   31  C   UNL     1      23.786  76.218  31.297  1.00  0.00     0.313 C 
HETATM   32  O   UNL     1      22.693  76.759  31.252  1.00  0.00    -0.260 OA
BRANCH  31  33
HETATM   33  O   UNL     1      24.222  75.696  32.459  1.00  0.00    -0.148 OA
HETATM   34 Na   UNL     1      26.106  75.006  32.630  1.00  0.00     0.000 Na
ENDBRANCH  31  33
ENDBRANCH  30  31
ENDBRANCH  29  30
ENDBRANCH  28  29
ENDBRANCH  24  28
BRANCH  26  35
HETATM   35  O   UNL     1      27.078  71.040  32.337  1.00  0.00    -0.393 OA
HETATM   36  H   UNL     1      27.541  70.197  32.089  1.00  0.00     0.210 HD
ENDBRANCH  26  35
BRANCH  27  37
HETATM   37  O   UNL     1      26.909  69.636  30.095  1.00  0.00    -0.376 OA
BRANCH  37  38
HETATM   38  C   UNL     1      27.365  68.231  30.054  1.00  0.00     0.194 C 
BRANCH  38  39
HETATM   39  C   UNL     1      28.844  68.065  30.520  1.00  0.00     0.116 C 
BRANCH  39  40
HETATM   40  C   UNL     1      29.788  68.280  29.265  1.00  0.00     0.053 C 
BRANCH  40  41
HETATM   41  C   UNL     1      30.738  69.528  29.167  1.00  0.00     0.094 C 
BRANCH  41  42
HETATM   42  C   UNL     1      32.100  69.078  28.483  1.00  0.00     0.051 C 
BRANCH  42  43
HETATM   43  C   UNL     1      33.525  69.387  29.063  1.00  0.00     0.094 C 
BRANCH  43  44
HETATM   44  C   UNL     1      34.598  69.446  27.929  1.00  0.00     0.051 C 
BRANCH  44  45
HETATM   45  C   UNL     1      36.026  69.169  28.462  1.00  0.00     0.094 C 
BRANCH  45  46
HETATM   46  C   UNL     1      36.909  68.196  27.614  1.00  0.00     0.051 C 
BRANCH  46  47
HETATM   47  C   UNL     1      37.497  66.901  28.251  1.00  0.00     0.089 C 
HETATM   48  C   UNL     1      38.909  67.185  28.788  1.00  0.00     0.033 C 
BRANCH  47  49
HETATM   49  N   UNL     1      36.698  66.341  29.330  1.00  0.00    -0.334 N 
HETATM   50  C   UNL     1      37.043  66.352  30.695  1.00  0.00     0.210 A 
HETATM   51  N   UNL     1      36.120  65.840  31.415  1.00  0.00    -0.254 NA
HETATM   52  C   UNL     1      35.083  65.465  30.531  1.00  0.00     0.150 A 
HETATM   53  C   UNL     1      35.412  65.768  29.278  1.00  0.00     0.082 A 
ENDBRANCH  47  49
ENDBRANCH  46  47
ENDBRANCH  45  46
BRANCH  45  54
HETATM   54  N   UNL     1      36.715  70.469  28.688  1.00  0.00    -0.339 N 
HETATM   55  C   UNL     1      36.913  71.428  27.753  1.00  0.00     0.209 A 
HETATM   56  N   UNL     1      37.531  72.518  28.251  1.00  0.00    -0.254 NA
HETATM   57  C   UNL     1      37.726  72.241  29.550  1.00  0.00     0.142 A 
HETATM   58  C   UNL     1      37.225  70.985  29.828  1.00  0.00     0.026 A 
HETATM   59  C   UNL     1      37.265  70.355  31.185  1.00  0.00     0.070 C 
ENDBRANCH  45  54
ENDBRANCH  44  45
ENDBRANCH  43  44
BRANCH  43  60
HETATM   60  N   UNL     1      33.559  70.683  29.765  1.00  0.00    -0.345 N 
HETATM   61  C   UNL     1      33.514  71.910  29.205  1.00  0.00     0.209 A 
HETATM   62  N   UNL     1      33.513  72.892  30.126  1.00  0.00    -0.255 NA
HETATM   63  C   UNL     1      33.544  72.254  31.313  1.00  0.00     0.135 A 
HETATM   64  C   UNL     1      33.559  70.895  31.096  1.00  0.00     0.111 A 
ENDBRANCH  43  60
ENDBRANCH  42  43
ENDBRANCH  41  42
BRANCH  41  65
HETATM   65  N   UNL     1      30.089  70.766  28.682  1.00  0.00    -0.339 N 
HETATM   66  C   UNL     1      29.991  71.103  27.316  1.00  0.00     0.209 A 
HETATM   67  N   UNL     1      29.447  72.380  27.126  1.00  0.00    -0.254 NA
HETATM   68  C   UNL     1      29.325  72.893  28.425  1.00  0.00     0.142 A 
HETATM   69  C   UNL     1      29.728  72.002  29.334  1.00  0.00     0.026 A 
HETATM   70  C   UNL     1      29.848  72.403  30.785  1.00  0.00     0.070 C 
ENDBRANCH  41  65
ENDBRANCH  40  41
ENDBRANCH  39  40
BRANCH  39  71
HETATM   71  N   UNL     1      29.072  66.833  31.324  1.00  0.00    -0.343 N 
HETATM   72  C   UNL     1      29.961  66.616  32.323  1.00  0.00     0.111 A 
HETATM   73  C   UNL     1      29.837  65.315  32.751  1.00  0.00     0.135 A 
HETATM   74  N   UNL     1      28.897  64.698  32.017  1.00  0.00    -0.255 NA
HETATM   75  C   UNL     1      28.463  65.637  31.155  1.00  0.00     0.209 A 
ENDBRANCH  39  71
ENDBRANCH  38  39
ENDBRANCH  37  38
ENDBRANCH  27  37
ENDBRANCH  21  22
ENDBRANCH  11  21
BRANCH  12  76
HETATM   76  O   UNL     1      22.198  67.666  27.976  1.00  0.00    -0.390 OA
HETATM   77  H   UNL     1      22.018  67.358  28.900  1.00  0.00     0.210 HD
ENDBRANCH  12  76
BRANCH  13  78
HETATM   78  O   UNL     1      19.973  68.645  26.663  1.00  0.00    -0.388 OA
HETATM   79  H   UNL     1      19.287  68.920  27.291  1.00  0.00     0.210 HD
ENDBRANCH  13  78
ENDBRANCH   7   8
ENDBRANCH   1   7
BRANCH   2  80
HETATM   80  C   UNL     1      23.037  69.747  21.161  1.00  0.00     0.203 C 
BRANCH  80  81
HETATM   81  O   UNL     1      23.809  68.782  20.470  1.00  0.00    -0.379 OA
BRANCH  81  82
HETATM   82  C   UNL     1      23.485  68.748  19.098  1.00  0.00     0.281 C 
BRANCH  82  83
HETATM   83  C   UNL     1      22.860  67.421  18.792  1.00  0.00     0.313 C 
HETATM   84  O   UNL     1      21.841  67.368  18.121  1.00  0.00    -0.260 OA
BRANCH  83  85
HETATM   85  O   UNL     1      23.412  66.281  19.251  1.00  0.00    -0.148 OA
HETATM   86 Na   UNL     1      22.300  64.643  19.626  1.00  0.00     0.000 Na
ENDBRANCH  83  85
ENDBRANCH  82  83
ENDBRANCH  81  82
ENDBRANCH  80  81
ENDBRANCH   2  80
BRANCH   3  87
HETATM   87  O   UNL     1      19.366  71.393  23.503  1.00  0.00    -0.390 OA
HETATM   88  H   UNL     1      19.808  72.278  23.580  1.00  0.00     0.210 HD
ENDBRANCH   3  87
BRANCH   4  89
HETATM   89  O   UNL     1      18.683  68.608  22.901  1.00  0.00    -0.376 OA
BRANCH  89  90
HETATM   90  C   UNL     1      17.317  68.852  23.414  1.00  0.00     0.194 C 
BRANCH  90  91
HETATM   91  C   UNL     1      16.257  69.247  22.306  1.00  0.00     0.116 C 
BRANCH  91  92
HETATM   92  N   UNL     1      15.315  68.136  22.019  1.00  0.00    -0.343 N 
HETATM   93  C   UNL     1      15.139  66.990  22.714  1.00  0.00     0.111 A 
HETATM   94  C   UNL     1      14.179  66.235  22.083  1.00  0.00     0.135 A 
HETATM   95  N   UNL     1      13.758  66.886  20.986  1.00  0.00    -0.255 NA
HETATM   96  C   UNL     1      14.467  68.032  20.968  1.00  0.00     0.209 A 
ENDBRANCH  91  92
BRANCH  91  97
HETATM   97  C   UNL     1      15.587  70.643  22.627  1.00  0.00     0.053 C 
BRANCH  97  98
HETATM   98  C   UNL     1      14.813  70.934  23.979  1.00  0.00     0.094 C 
BRANCH  98  99
HETATM   99  C   UNL     1      14.484  72.446  24.275  1.00  0.00     0.051 C 
BRANCH  99 100
HETATM  100  C   UNL     1      15.390  73.179  25.318  1.00  0.00     0.094 C 
BRANCH 100 101
HETATM  101  N   UNL     1      16.117  72.229  26.180  1.00  0.00    -0.345 N 
HETATM  102  C   UNL     1      15.702  71.734  27.363  1.00  0.00     0.111 A 
HETATM  103  C   UNL     1      16.690  70.912  27.856  1.00  0.00     0.135 A 
HETATM  104  N   UNL     1      17.726  70.899  26.995  1.00  0.00    -0.255 NA
HETATM  105  C   UNL     1      17.350  71.715  25.989  1.00  0.00     0.209 A 
ENDBRANCH 100 101
BRANCH 100 106
HETATM  106  C   UNL     1      14.608  74.178  26.240  1.00  0.00     0.051 C 
BRANCH 106 107
HETATM  107  C   UNL     1      15.006  75.649  25.938  1.00  0.00     0.094 C 
BRANCH 107 108
HETATM  108  C   UNL     1      13.922  76.545  25.251  1.00  0.00     0.051 C 
BRANCH 108 109
HETATM  109  C   UNL     1      12.470  76.011  25.054  1.00  0.00     0.089 C 
HETATM  110  C   UNL     1      11.479  76.950  25.762  1.00  0.00     0.033 C 
BRANCH 109 111
HETATM  111  N   UNL     1      12.044  75.844  23.675  1.00  0.00    -0.334 N 
HETATM  112  C   UNL     1      11.786  76.821  22.695  1.00  0.00     0.082 A 
HETATM  113  C   UNL     1      11.423  76.162  21.597  1.00  0.00     0.150 A 
HETATM  114  N   UNL     1      11.426  74.768  21.833  1.00  0.00    -0.254 NA
HETATM  115  C   UNL     1      11.786  74.610  23.047  1.00  0.00     0.210 A 
ENDBRANCH 109 111
ENDBRANCH 108 109
ENDBRANCH 107 108
BRANCH 107 116
HETATM  116  N   UNL     1      15.592  76.297  27.111  1.00  0.00    -0.339 N 
HETATM  117  C   UNL     1      15.360  75.953  28.458  1.00  0.00     0.209 A 
HETATM  118  N   UNL     1      16.142  76.751  29.310  1.00  0.00    -0.254 NA
HETATM  119  C   UNL     1      16.869  77.590  28.437  1.00  0.00     0.142 A 
HETATM  120  C   UNL     1      16.562  77.333  27.164  1.00  0.00     0.026 A 
HETATM  121  C   UNL     1      17.181  78.055  26.001  1.00  0.00     0.070 C 
ENDBRANCH 107 116
ENDBRANCH 106 107
ENDBRANCH 100 106
ENDBRANCH  99 100
ENDBRANCH  98  99
BRANCH  98 122
HETATM  122  N   UNL     1      13.820  69.944  24.454  1.00  0.00    -0.339 N 
HETATM  123  C   UNL     1      12.562  69.453  23.980  1.00  0.00     0.026 A 
HETATM  124  C   UNL     1      12.113  68.479  24.774  1.00  0.00     0.142 A 
HETATM  125  C   UNL     1      11.797  69.840  22.771  1.00  0.00     0.070 C 
HETATM  126  N   UNL     1      13.037  68.190  25.788  1.00  0.00    -0.254 NA
HETATM  127  C   UNL     1      14.101  69.067  25.533  1.00  0.00     0.209 A 
ENDBRANCH  98 122
ENDBRANCH  97  98
ENDBRANCH  91  97
ENDBRANCH  90  91
ENDBRANCH  89  90
ENDBRANCH   4  89
BRANCH   5 128
HETATM  128  O   UNL     1      19.397  68.165  19.821  1.00  0.00    -0.348 OA
BRANCH 128 129
HETATM  129  C   UNL     1      18.633  67.112  20.448  1.00  0.00     0.187 C 
HETATM  130  C   UNL     1      17.806  66.271  19.433  1.00  0.00     0.180 C 
HETATM  131  O   UNL     1      16.901  65.420  20.130  1.00  0.00    -0.348 OA
HETATM  132  C   UNL     1      16.990  67.166  18.492  1.00  0.00     0.203 C 
HETATM  133  C   UNL     1      17.553  64.487  20.985  1.00  0.00     0.292 C 
HETATM  134  O   UNL     1      18.112  63.424  20.213  1.00  0.00    -0.348 OA
HETATM  135  C   UNL     1      18.567  65.160  21.955  1.00  0.00     0.204 C 
HETATM  136  C   UNL     1      17.387  62.199  20.375  1.00  0.00     0.187 C 
HETATM  137  C   UNL     1      17.143  61.489  18.997  1.00  0.00     0.176 C 
HETATM  138  C   UNL     1      18.148  61.222  21.288  1.00  0.00     0.180 C 
HETATM  139  O   UNL     1      16.820  60.091  19.098  1.00  0.00    -0.378 OA
HETATM  140  C   UNL     1      16.070  62.231  18.170  1.00  0.00     0.203 C 
HETATM  141  C   UNL     1      16.259  59.750  20.347  1.00  0.00     0.202 C 
HETATM  142  C   UNL     1      17.279  59.940  21.500  1.00  0.00     0.173 C 
HETATM  143  O   UNL     1      15.680  61.548  16.991  1.00  0.00    -0.379 OA
HETATM  144  C   UNL     1      16.765  61.321  16.117  1.00  0.00     0.280 C 
HETATM  145  C   UNL     1      16.236  61.134  14.728  1.00  0.00     0.308 C 
HETATM  146  O   UNL     1      15.408  60.266  14.502  1.00  0.00    -0.261 OA
HETATM  147  O   UNL     1      16.682  61.908  13.721  1.00  0.00    -0.158 OA
HETATM  148 Na   UNL     1      18.158  63.242  14.035  1.00  0.00    -0.020 Na
HETATM  149 Na   UNL     1      18.537  65.855  13.656  1.00  0.00     0.080 Na
HETATM  150  O   UNL     1      16.625  65.368  14.075  1.00  0.00    -0.180 OA
HETATM  151  C   UNL     1      16.120  65.595  15.303  1.00  0.00     0.302 C 
HETATM  152  C   UNL     1      16.982  66.231  16.352  1.00  0.00     0.280 C 
HETATM  153  O   UNL     1      14.963  65.288  15.544  1.00  0.00    -0.261 OA
HETATM  154  O   UNL     1      16.256  66.391  17.558  1.00  0.00    -0.379 OA
HETATM  155  C   UNL     1      19.522  66.142  21.242  1.00  0.00     0.183 C 
BRANCH 142 156
HETATM  156  O   UNL     1      18.113  58.754  21.714  1.00  0.00    -0.391 OA
HETATM  157  H   UNL     1      18.118  58.527  22.657  1.00  0.00     0.210 HD
ENDBRANCH 142 156
BRANCH 138 158
HETATM  158  O   UNL     1      19.424  60.946  20.751  1.00  0.00    -0.390 OA
HETATM  159  H   UNL     1      19.340  60.757  19.783  1.00  0.00     0.210 HD
ENDBRANCH 138 158
BRANCH 135 160
HETATM  160  O   UNL     1      19.282  64.165  22.754  1.00  0.00    -0.388 OA
HETATM  161  H   UNL     1      20.234  64.353  22.728  1.00  0.00     0.210 HD
ENDBRANCH 135 160
BRANCH 155 162
HETATM  162  O   UNL     1      20.405  65.452  20.395  1.00  0.00    -0.390 OA
HETATM  163  H   UNL     1      20.967  64.878  20.978  1.00  0.00     0.210 HD
ENDBRANCH 155 162
ENDBRANCH 128 129
ENDBRANCH   5 128
TORSDOF 61
ENDMDL
