MODEL 1
REMARK VINA RESULT:      -8.3      0.000      0.000
REMARK WARNING: 32 MAX_TORS EXCEEDED!!!
REMARK  40 active torsions:
REMARK  status: ('A' for Active; 'I' for Inactive)
REMARK    1  A    between atoms: C_1  and  O_44 
REMARK    2  A    between atoms: C_2  and  C_6 
REMARK    3  A    between atoms: C_3  and  O_10 
REMARK    4  A    between atoms: C_4  and  N_12 
REMARK    5  A    between atoms: C_5  and  O_14 
REMARK    6  A    between atoms: C_6  and  O_7 
REMARK    7  A    between atoms: O_14  and  C_27 
REMARK    8  A    between atoms: O_16  and  C_21 
REMARK    9  A    between atoms: C_18  and  C_33 
REMARK   10  A    between atoms: O_20  and  C_33 
REMARK   11  A    between atoms: O_22  and  C_30 
REMARK   12  A    between atoms: O_22  and  C_70 
REMARK   13  A    between atoms: O_23  and  C_24 
REMARK   14  A    between atoms: C_24  and  C_28 
REMARK       I    between atoms: N_29  and  C_32 
REMARK   15  A    between atoms: N_29  and  C_35 
REMARK   16  A    between atoms: C_31  and  C_32 
REMARK   17  A    between atoms: O_38  and  C_43 
REMARK   18  A    between atoms: C_40  and  C_55 
REMARK   19  A    between atoms: O_42  and  C_55 
REMARK   20  A    between atoms: O_44  and  C_52 
REMARK   21  A    between atoms: O_45  and  C_46 
REMARK   22  A    between atoms: C_46  and  C_50 
REMARK   23  A    between atoms: C_49  and  O_87 
REMARK       I    between atoms: N_51  and  C_54 
REMARK   24  A    between atoms: N_51  and  C_57 
REMARK   25  A    between atoms: C_53  and  C_54 
REMARK   26  A    between atoms: O_60  and  C_65 
REMARK   27  A    between atoms: C_62  and  C_76 
REMARK   28  A    between atoms: O_64  and  C_76 
REMARK   29  A    between atoms: O_66  and  C_67 
REMARK   30  A    between atoms: C_67  and  C_71 
REMARK       I    between atoms: N_72  and  C_75 
REMARK   31  A    between atoms: N_72  and  C_78 
REMARK   32  A    between atoms: C_74  and  C_75 
REMARK   33  A    between atoms: O_81  and  C_86 
REMARK   34  A    between atoms: C_83  and  C_98 
REMARK   35  A    between atoms: O_85  and  C_98 
REMARK   36  A    between atoms: O_87  and  C_95 
REMARK   37  A    between atoms: O_88  and  C_89 
REMARK   38  A    between atoms: C_89  and  C_93 
REMARK       I    between atoms: N_94  and  C_97 
REMARK   39  A    between atoms: N_94  and  C_100 
REMARK   40  A    between atoms: C_96  and  C_97 
ROOT
HETATM    1  C   UNL     1      22.235  69.971  25.158  1.00  0.00     0.186 C 
HETATM    2  C   UNL     1      23.478  70.781  24.717  1.00  0.00     0.179 C 
HETATM    3  C   UNL     1      22.037  70.088  26.683  1.00  0.00     0.187 C 
HETATM    4  C   UNL     1      23.363  69.708  27.382  1.00  0.00     0.303 C 
HETATM    5  C   UNL     1      24.502  70.689  26.933  1.00  0.00     0.296 C 
HETATM    6  O   UNL     1      24.113  71.486  25.808  1.00  0.00    -0.349 OA
ENDROOT
BRANCH   1   7
HETATM    7  O   UNL     1      21.065  70.452  24.474  1.00  0.00    -0.348 OA
BRANCH   7   8
HETATM    8  C   UNL     1      20.338  69.475  23.718  1.00  0.00     0.286 C 
HETATM    9  O   UNL     1      21.045  69.291  22.486  1.00  0.00    -0.349 OA
HETATM   10  C   UNL     1      20.477  68.313  21.593  1.00  0.00     0.180 C 
HETATM   11  C   UNL     1      18.974  68.536  21.312  1.00  0.00     0.186 C 
HETATM   12  C   UNL     1      18.494  69.842  21.970  1.00  0.00     0.177 C 
HETATM   13  C   UNL     1      18.867  69.921  23.458  1.00  0.00     0.171 C 
BRANCH  10  14
HETATM   14  C   UNL     1      20.759  66.891  22.101  1.00  0.00     0.198 C 
BRANCH  14  15
HETATM   15  O   UNL     1      20.433  65.918  21.114  1.00  0.00    -0.398 OA
HETATM   16  H   UNL     1      21.260  65.472  20.845  1.00  0.00     0.209 HD
ENDBRANCH  14  15
ENDBRANCH  10  14
BRANCH  11  17
HETATM   17  O   UNL     1      18.804  68.661  19.892  1.00  0.00    -0.348 OA
BRANCH  17  18
HETATM   18  C   UNL     1      18.019  67.659  19.238  1.00  0.00     0.286 C 
HETATM   19  O   UNL     1      17.601  66.744  20.245  1.00  0.00    -0.352 OA
HETATM   20  C   UNL     1      16.741  65.686  19.784  1.00  0.00     0.150 C 
HETATM   21  C   UNL     1      17.013  65.247  18.341  1.00  0.00     0.068 C 
HETATM   22  C   UNL     1      18.472  65.459  17.978  1.00  0.00     0.148 C 
HETATM   23  C   UNL     1      18.839  66.952  18.115  1.00  0.00     0.168 C 
BRANCH  20  24
HETATM   24  C   UNL     1      15.280  66.113  19.978  1.00  0.00     0.196 C 
BRANCH  24  25
HETATM   25  O   UNL     1      14.736  66.582  18.748  1.00  0.00    -0.398 OA
HETATM   26  H   UNL     1      15.083  67.486  18.621  1.00  0.00     0.209 HD
ENDBRANCH  24  25
ENDBRANCH  20  24
BRANCH  22  27
HETATM   27  O   UNL     1      19.273  64.638  18.833  1.00  0.00    -0.393 OA
HETATM   28  H   UNL     1      20.110  65.123  18.964  1.00  0.00     0.210 HD
ENDBRANCH  22  27
BRANCH  23  29
HETATM   29  N   UNL     1      20.290  67.144  18.243  1.00  0.00    -0.346 N 
HETATM   30  C   UNL     1      20.968  67.865  17.292  1.00  0.00     0.241 C 
HETATM   31  O   UNL     1      20.500  68.138  16.195  1.00  0.00    -0.269 OA
HETATM   32  H   UNL     1      20.674  67.037  19.180  1.00  0.00     0.163 HD
BRANCH  30  33
HETATM   33  C   UNL     1      22.263  68.393  17.767  1.00  0.00     0.080 C 
HETATM   34  C   UNL     1      22.362  68.758  19.051  1.00  0.00     0.086 C 
BRANCH  34  35
HETATM   35  C   UNL     1      23.667  69.137  19.593  1.00  0.00     0.165 C 
HETATM   36  O   UNL     1      24.537  68.393  20.001  1.00  0.00    -0.647 OA
BRANCH  35  37
HETATM   37  O   UNL     1      23.787  70.473  19.618  1.00  0.00    -0.773 OA
HETATM   38  H   UNL     1      23.199  70.784  18.898  1.00  0.00     0.167 HD
ENDBRANCH  35  37
ENDBRANCH  34  35
ENDBRANCH  30  33
ENDBRANCH  23  29
ENDBRANCH  17  18
ENDBRANCH  11  17
BRANCH  12  39
HETATM   39  O   UNL     1      18.989  70.993  21.258  1.00  0.00    -0.391 OA
HETATM   40  H   UNL     1      18.807  70.853  20.308  1.00  0.00     0.210 HD
ENDBRANCH  12  39
BRANCH  13  41
HETATM   41  N   UNL     1      18.547  71.256  23.963  1.00  0.00    -0.346 N 
HETATM   42  C   UNL     1      17.417  71.512  24.687  1.00  0.00     0.241 C 
HETATM   43  O   UNL     1      16.525  70.690  24.861  1.00  0.00    -0.269 OA
HETATM   44  H   UNL     1      19.295  71.940  23.934  1.00  0.00     0.163 HD
BRANCH  42  45
HETATM   45  C   UNL     1      17.388  72.876  25.251  1.00  0.00     0.080 C 
HETATM   46  C   UNL     1      16.213  73.499  25.399  1.00  0.00     0.086 C 
BRANCH  46  47
HETATM   47  C   UNL     1      16.189  74.831  26.001  1.00  0.00     0.165 C 
HETATM   48  O   UNL     1      17.036  75.334  26.715  1.00  0.00    -0.647 OA
BRANCH  47  49
HETATM   49  O   UNL     1      15.071  75.484  25.650  1.00  0.00    -0.773 OA
HETATM   50  H   UNL     1      15.233  76.405  25.941  1.00  0.00     0.167 HD
ENDBRANCH  47  49
ENDBRANCH  46  47
ENDBRANCH  42  45
ENDBRANCH  13  41
ENDBRANCH   7   8
ENDBRANCH   1   7
BRANCH   2  51
HETATM   51  C   UNL     1      24.505  69.893  23.997  1.00  0.00     0.198 C 
BRANCH  51  52
HETATM   52  O   UNL     1      24.124  69.672  22.643  1.00  0.00    -0.398 OA
HETATM   53  H   UNL     1      23.810  70.520  22.275  1.00  0.00     0.209 HD
ENDBRANCH  51  52
ENDBRANCH   2  51
BRANCH   3  54
HETATM   54  O   UNL     1      21.608  71.401  27.077  1.00  0.00    -0.391 OA
HETATM   55  H   UNL     1      20.995  71.301  27.831  1.00  0.00     0.210 HD
ENDBRANCH   3  54
BRANCH   4  56
HETATM   56  N   UNL     1      23.157  69.577  28.835  1.00  0.00     0.090 N 
HETATM   57  H   UNL     1      22.272  69.133  29.051  1.00  0.00     0.313 HD
HETATM   58  H   UNL     1      23.900  68.974  29.204  1.00  0.00     0.313 HD
ENDBRANCH   4  56
BRANCH   5  59
HETATM   59  O   UNL     1      24.840  71.603  27.994  1.00  0.00    -0.348 OA
BRANCH  59  60
HETATM   60  C   UNL     1      26.189  72.107  27.953  1.00  0.00     0.186 C 
HETATM   61  C   UNL     1      26.640  72.700  29.314  1.00  0.00     0.179 C 
HETATM   62  O   UNL     1      27.878  72.168  29.831  1.00  0.00    -0.349 OA
HETATM   63  C   UNL     1      28.978  72.043  28.922  1.00  0.00     0.281 C 
HETATM   64  C   UNL     1      28.556  71.500  27.526  1.00  0.00     0.149 C 
HETATM   65  C   UNL     1      27.117  70.953  27.527  1.00  0.00     0.172 C 
BRANCH  61  66
HETATM   66  C   UNL     1      26.763  74.230  29.249  1.00  0.00     0.198 C 
BRANCH  66  67
HETATM   67  O   UNL     1      27.206  74.755  30.495  1.00  0.00    -0.398 OA
HETATM   68  H   UNL     1      28.145  74.506  30.608  1.00  0.00     0.209 HD
ENDBRANCH  66  67
ENDBRANCH  61  66
BRANCH  63  69
HETATM   69  O   UNL     1      29.972  71.224  29.536  1.00  0.00    -0.349 OA
BRANCH  69  70
HETATM   70  C   UNL     1      31.191  71.887  29.900  1.00  0.00     0.186 C 
HETATM   71  C   UNL     1      31.496  71.756  31.413  1.00  0.00     0.176 C 
HETATM   72  O   UNL     1      32.916  71.597  31.679  1.00  0.00    -0.379 OA
HETATM   73  C   UNL     1      33.750  72.430  30.864  1.00  0.00     0.196 C 
HETATM   74  C   UNL     1      33.656  72.039  29.378  1.00  0.00     0.139 C 
HETATM   75  C   UNL     1      32.359  71.254  29.105  1.00  0.00     0.174 C 
BRANCH  71  76
HETATM   76  C   UNL     1      30.985  72.937  32.248  1.00  0.00     0.198 C 
BRANCH  76  77
HETATM   77  O   UNL     1      29.576  73.087  32.069  1.00  0.00    -0.398 OA
HETATM   78  H   UNL     1      29.157  72.766  32.891  1.00  0.00     0.209 HD
ENDBRANCH  76  77
ENDBRANCH  71  76
BRANCH  74  79
HETATM   79  N   UNL     1      34.828  71.267  28.963  1.00  0.00    -0.348 N 
HETATM   80  C   UNL     1      35.303  71.290  27.680  1.00  0.00     0.241 C 
HETATM   81  O   UNL     1      34.793  71.929  26.768  1.00  0.00    -0.269 OA
HETATM   82  H   UNL     1      35.184  70.589  29.627  1.00  0.00     0.163 HD
BRANCH  80  83
HETATM   83  C   UNL     1      36.535  70.490  27.501  1.00  0.00     0.080 C 
HETATM   84  C   UNL     1      36.555  69.221  27.931  1.00  0.00     0.086 C 
BRANCH  84  85
HETATM   85  C   UNL     1      37.732  68.396  27.657  1.00  0.00     0.165 C 
HETATM   86  O   UNL     1      37.862  67.207  27.877  1.00  0.00    -0.647 OA
BRANCH  85  87
HETATM   87  O   UNL     1      38.712  69.142  27.126  1.00  0.00    -0.773 OA
HETATM   88  H   UNL     1      39.453  68.514  27.001  1.00  0.00     0.167 HD
ENDBRANCH  85  87
ENDBRANCH  84  85
ENDBRANCH  80  83
ENDBRANCH  74  79
BRANCH  75  89
HETATM   89  O   UNL     1      32.547  69.869  29.451  1.00  0.00    -0.391 OA
HETATM   90  H   UNL     1      33.496  69.724  29.622  1.00  0.00     0.210 HD
ENDBRANCH  75  89
ENDBRANCH  69  70
ENDBRANCH  63  69
BRANCH  64  91
HETATM   91  N   UNL     1      29.536  70.721  26.750  1.00  0.00    -0.247 NA
HETATM   92  C   UNL     1      29.165  69.644  25.989  1.00  0.00     0.221 C 
HETATM   93  O   UNL     1      29.184  69.750  24.765  1.00  0.00    -0.275 OA
HETATM   94  H   UNL     1      29.987  71.338  26.083  1.00  0.00     0.131 HD
BRANCH  92  95
HETATM   95  C   UNL     1      29.077  68.346  26.672  1.00  0.00     0.074 C 
HETATM   96  C   UNL     1      28.500  67.370  25.954  1.00  0.00     0.086 C 
BRANCH  96  97
HETATM   97  C   UNL     1      28.422  65.995  26.443  1.00  0.00     0.165 C 
HETATM   98  O   UNL     1      29.229  65.394  27.126  1.00  0.00    -0.647 OA
BRANCH  97  99
HETATM   99  O   UNL     1      27.289  65.424  26.003  1.00  0.00    -0.773 OA
HETATM  100  H   UNL     1      27.413  64.472  26.196  1.00  0.00     0.167 HD
ENDBRANCH  97  99
ENDBRANCH  96  97
ENDBRANCH  92  95
ENDBRANCH  64  91
BRANCH  65 101
HETATM  101  O   UNL     1      26.978  69.826  28.389  1.00  0.00    -0.391 OA
HETATM  102  H   UNL     1      26.035  69.775  28.643  1.00  0.00     0.210 HD
ENDBRANCH  65 101
ENDBRANCH  59  60
ENDBRANCH   5  59
TORSDOF 40
ENDMDL
MODEL 2
REMARK VINA RESULT:      -8.3      1.258      1.532
REMARK WARNING: 32 MAX_TORS EXCEEDED!!!
REMARK  40 active torsions:
REMARK  status: ('A' for Active; 'I' for Inactive)
REMARK    1  A    between atoms: C_1  and  O_44 
REMARK    2  A    between atoms: C_2  and  C_6 
REMARK    3  A    between atoms: C_3  and  O_10 
REMARK    4  A    between atoms: C_4  and  N_12 
REMARK    5  A    between atoms: C_5  and  O_14 
REMARK    6  A    between atoms: C_6  and  O_7 
REMARK    7  A    between atoms: O_14  and  C_27 
REMARK    8  A    between atoms: O_16  and  C_21 
REMARK    9  A    between atoms: C_18  and  C_33 
REMARK   10  A    between atoms: O_20  and  C_33 
REMARK   11  A    between atoms: O_22  and  C_30 
REMARK   12  A    between atoms: O_22  and  C_70 
REMARK   13  A    between atoms: O_23  and  C_24 
REMARK   14  A    between atoms: C_24  and  C_28 
REMARK       I    between atoms: N_29  and  C_32 
REMARK   15  A    between atoms: N_29  and  C_35 
REMARK   16  A    between atoms: C_31  and  C_32 
REMARK   17  A    between atoms: O_38  and  C_43 
REMARK   18  A    between atoms: C_40  and  C_55 
REMARK   19  A    between atoms: O_42  and  C_55 
REMARK   20  A    between atoms: O_44  and  C_52 
REMARK   21  A    between atoms: O_45  and  C_46 
REMARK   22  A    between atoms: C_46  and  C_50 
REMARK   23  A    between atoms: C_49  and  O_87 
REMARK       I    between atoms: N_51  and  C_54 
REMARK   24  A    between atoms: N_51  and  C_57 
REMARK   25  A    between atoms: C_53  and  C_54 
REMARK   26  A    between atoms: O_60  and  C_65 
REMARK   27  A    between atoms: C_62  and  C_76 
REMARK   28  A    between atoms: O_64  and  C_76 
REMARK   29  A    between atoms: O_66  and  C_67 
REMARK   30  A    between atoms: C_67  and  C_71 
REMARK       I    between atoms: N_72  and  C_75 
REMARK   31  A    between atoms: N_72  and  C_78 
REMARK   32  A    between atoms: C_74  and  C_75 
REMARK   33  A    between atoms: O_81  and  C_86 
REMARK   34  A    between atoms: C_83  and  C_98 
REMARK   35  A    between atoms: O_85  and  C_98 
REMARK   36  A    between atoms: O_87  and  C_95 
REMARK   37  A    between atoms: O_88  and  C_89 
REMARK   38  A    between atoms: C_89  and  C_93 
REMARK       I    between atoms: N_94  and  C_97 
REMARK   39  A    between atoms: N_94  and  C_100 
REMARK   40  A    between atoms: C_96  and  C_97 
ROOT
HETATM    1  C   UNL     1      22.271  70.070  25.214  1.00  0.00     0.186 C 
HETATM    2  C   UNL     1      23.485  70.944  24.818  1.00  0.00     0.179 C 
HETATM    3  C   UNL     1      22.046  70.133  26.739  1.00  0.00     0.187 C 
HETATM    4  C   UNL     1      23.375  69.788  27.448  1.00  0.00     0.303 C 
HETATM    5  C   UNL     1      24.479  70.829  27.046  1.00  0.00     0.296 C 
HETATM    6  O   UNL     1      24.074  71.642  25.939  1.00  0.00    -0.349 OA
ENDROOT
BRANCH   1   7
HETATM    7  O   UNL     1      21.092  70.522  24.526  1.00  0.00    -0.348 OA
BRANCH   7   8
HETATM    8  C   UNL     1      20.379  69.521  23.788  1.00  0.00     0.286 C 
HETATM    9  O   UNL     1      21.076  69.342  22.549  1.00  0.00    -0.349 OA
HETATM   10  C   UNL     1      20.520  68.342  21.673  1.00  0.00     0.180 C 
HETATM   11  C   UNL     1      19.009  68.529  21.407  1.00  0.00     0.186 C 
HETATM   12  C   UNL     1      18.508  69.830  22.057  1.00  0.00     0.177 C 
HETATM   13  C   UNL     1      18.895  69.933  23.540  1.00  0.00     0.171 C 
BRANCH  10  14
HETATM   14  C   UNL     1      20.840  66.932  22.191  1.00  0.00     0.198 C 
BRANCH  14  15
HETATM   15  O   UNL     1      20.366  65.934  21.291  1.00  0.00    -0.398 OA
HETATM   16  H   UNL     1      19.609  66.307  20.799  1.00  0.00     0.209 HD
ENDBRANCH  14  15
ENDBRANCH  10  14
BRANCH  11  17
HETATM   17  O   UNL     1      18.821  68.636  19.987  1.00  0.00    -0.348 OA
BRANCH  17  18
HETATM   18  C   UNL     1      17.997  67.647  19.362  1.00  0.00     0.286 C 
HETATM   19  O   UNL     1      17.573  66.758  20.389  1.00  0.00    -0.352 OA
HETATM   20  C   UNL     1      16.675  65.719  19.958  1.00  0.00     0.150 C 
HETATM   21  C   UNL     1      16.909  65.252  18.518  1.00  0.00     0.068 C 
HETATM   22  C   UNL     1      18.366  65.419  18.126  1.00  0.00     0.148 C 
HETATM   23  C   UNL     1      18.776  66.903  18.235  1.00  0.00     0.168 C 
BRANCH  20  24
HETATM   24  C   UNL     1      15.230  66.188  20.172  1.00  0.00     0.196 C 
BRANCH  24  25
HETATM   25  O   UNL     1      14.634  66.531  18.924  1.00  0.00    -0.398 OA
HETATM   26  H   UNL     1      14.042  67.289  19.102  1.00  0.00     0.209 HD
ENDBRANCH  24  25
ENDBRANCH  20  24
BRANCH  22  27
HETATM   27  O   UNL     1      19.160  64.588  18.978  1.00  0.00    -0.393 OA
HETATM   28  H   UNL     1      19.977  65.090  19.157  1.00  0.00     0.210 HD
ENDBRANCH  22  27
BRANCH  23  29
HETATM   29  N   UNL     1      20.234  67.056  18.334  1.00  0.00    -0.346 N 
HETATM   30  C   UNL     1      20.911  67.775  17.380  1.00  0.00     0.241 C 
HETATM   31  O   UNL     1      20.426  68.078  16.298  1.00  0.00    -0.269 OA
HETATM   32  H   UNL     1      20.636  66.924  19.261  1.00  0.00     0.163 HD
BRANCH  30  33
HETATM   33  C   UNL     1      22.228  68.263  17.835  1.00  0.00     0.080 C 
HETATM   34  C   UNL     1      22.320  68.769  19.071  1.00  0.00     0.086 C 
BRANCH  34  35
HETATM   35  C   UNL     1      23.635  69.116  19.610  1.00  0.00     0.165 C 
HETATM   36  O   UNL     1      24.478  68.352  20.039  1.00  0.00    -0.647 OA
BRANCH  35  37
HETATM   37  O   UNL     1      23.800  70.447  19.605  1.00  0.00    -0.773 OA
HETATM   38  H   UNL     1      24.528  70.605  20.242  1.00  0.00     0.167 HD
ENDBRANCH  35  37
ENDBRANCH  34  35
ENDBRANCH  30  33
ENDBRANCH  23  29
ENDBRANCH  17  18
ENDBRANCH  11  17
BRANCH  12  39
HETATM   39  O   UNL     1      18.969  70.985  21.329  1.00  0.00    -0.391 OA
HETATM   40  H   UNL     1      18.181  71.495  21.055  1.00  0.00     0.210 HD
ENDBRANCH  12  39
BRANCH  13  41
HETATM   41  N   UNL     1      18.552  71.265  24.036  1.00  0.00    -0.346 N 
HETATM   42  C   UNL     1      17.386  71.518  24.701  1.00  0.00     0.241 C 
HETATM   43  O   UNL     1      16.484  70.697  24.823  1.00  0.00    -0.269 OA
HETATM   44  H   UNL     1      19.301  71.948  24.050  1.00  0.00     0.163 HD
BRANCH  42  45
HETATM   45  C   UNL     1      17.329  72.879  25.272  1.00  0.00     0.080 C 
HETATM   46  C   UNL     1      16.146  73.496  25.377  1.00  0.00     0.086 C 
BRANCH  46  47
HETATM   47  C   UNL     1      16.094  74.825  25.986  1.00  0.00     0.165 C 
HETATM   48  O   UNL     1      15.269  75.696  25.787  1.00  0.00    -0.647 OA
BRANCH  47  49
HETATM   49  O   UNL     1      17.108  74.984  26.850  1.00  0.00    -0.773 OA
HETATM   50  H   UNL     1      17.463  74.079  26.968  1.00  0.00     0.167 HD
ENDBRANCH  47  49
ENDBRANCH  46  47
ENDBRANCH  42  45
ENDBRANCH  13  41
ENDBRANCH   7   8
ENDBRANCH   1   7
BRANCH   2  51
HETATM   51  C   UNL     1      24.560  70.122  24.089  1.00  0.00     0.198 C 
BRANCH  51  52
HETATM   52  O   UNL     1      24.130  69.774  22.777  1.00  0.00    -0.398 OA
HETATM   53  H   UNL     1      23.751  70.573  22.361  1.00  0.00     0.209 HD
ENDBRANCH  51  52
ENDBRANCH   2  51
BRANCH   3  54
HETATM   54  O   UNL     1      21.556  71.415  27.164  1.00  0.00    -0.391 OA
HETATM   55  H   UNL     1      22.057  71.677  27.961  1.00  0.00     0.210 HD
ENDBRANCH   3  54
BRANCH   4  56
HETATM   56  N   UNL     1      23.154  69.607  28.893  1.00  0.00     0.090 N 
HETATM   57  H   UNL     1      24.020  69.663  29.416  1.00  0.00     0.313 HD
HETATM   58  H   UNL     1      22.551  70.371  29.216  1.00  0.00     0.313 HD
ENDBRANCH   4  56
BRANCH   5  59
HETATM   59  O   UNL     1      24.762  71.725  28.138  1.00  0.00    -0.348 OA
BRANCH  59  60
HETATM   60  C   UNL     1      26.161  71.991  28.357  1.00  0.00     0.186 C 
HETATM   61  C   UNL     1      26.433  72.617  29.751  1.00  0.00     0.179 C 
HETATM   62  O   UNL     1      27.425  71.932  30.543  1.00  0.00    -0.349 OA
HETATM   63  C   UNL     1      28.643  71.546  29.895  1.00  0.00     0.281 C 
HETATM   64  C   UNL     1      28.415  70.962  28.470  1.00  0.00     0.149 C 
HETATM   65  C   UNL     1      26.929  70.665  28.196  1.00  0.00     0.172 C 
BRANCH  61  66
HETATM   66  C   UNL     1      26.842  74.093  29.635  1.00  0.00     0.198 C 
BRANCH  66  67
HETATM   67  O   UNL     1      26.115  74.739  28.596  1.00  0.00    -0.398 OA
HETATM   68  H   UNL     1      26.703  75.406  28.190  1.00  0.00     0.209 HD
ENDBRANCH  66  67
ENDBRANCH  61  66
BRANCH  63  69
HETATM   69  O   UNL     1      29.329  70.630  30.746  1.00  0.00    -0.349 OA
BRANCH  69  70
HETATM   70  C   UNL     1      30.516  71.130  31.377  1.00  0.00     0.186 C 
HETATM   71  C   UNL     1      31.181  70.071  32.291  1.00  0.00     0.176 C 
HETATM   72  O   UNL     1      32.633  70.132  32.243  1.00  0.00    -0.379 OA
HETATM   73  C   UNL     1      33.151  71.468  32.225  1.00  0.00     0.196 C 
HETATM   74  C   UNL     1      32.755  72.207  30.934  1.00  0.00     0.139 C 
HETATM   75  C   UNL     1      31.529  71.542  30.281  1.00  0.00     0.174 C 
BRANCH  71  76
HETATM   76  C   UNL     1      30.749  70.167  33.760  1.00  0.00     0.198 C 
BRANCH  76  77
HETATM   77  O   UNL     1      29.725  71.152  33.903  1.00  0.00    -0.398 OA
HETATM   78  H   UNL     1      29.965  71.888  33.306  1.00  0.00     0.209 HD
ENDBRANCH  76  77
ENDBRANCH  71  76
BRANCH  74  79
HETATM   79  N   UNL     1      33.877  72.263  29.995  1.00  0.00    -0.348 N 
HETATM   80  C   UNL     1      34.675  73.368  29.871  1.00  0.00     0.241 C 
HETATM   81  O   UNL     1      34.518  74.404  30.504  1.00  0.00    -0.269 OA
HETATM   82  H   UNL     1      33.947  71.506  29.325  1.00  0.00     0.163 HD
BRANCH  80  83
HETATM   83  C   UNL     1      35.786  73.179  28.914  1.00  0.00     0.080 C 
HETATM   84  C   UNL     1      36.761  72.310  29.211  1.00  0.00     0.086 C 
BRANCH  84  85
HETATM   85  C   UNL     1      37.803  72.041  28.219  1.00  0.00     0.165 C 
HETATM   86  O   UNL     1      39.006  72.097  28.384  1.00  0.00    -0.647 OA
BRANCH  85  87
HETATM   87  O   UNL     1      37.251  71.729  27.037  1.00  0.00    -0.773 OA
HETATM   88  H   UNL     1      36.331  71.476  27.259  1.00  0.00     0.167 HD
ENDBRANCH  85  87
ENDBRANCH  84  85
ENDBRANCH  80  83
ENDBRANCH  74  79
BRANCH  75  89
HETATM   89  O   UNL     1      31.950  70.411  29.496  1.00  0.00    -0.391 OA
HETATM   90  H   UNL     1      31.528  70.474  28.619  1.00  0.00     0.210 HD
ENDBRANCH  75  89
ENDBRANCH  69  70
ENDBRANCH  63  69
BRANCH  64  91
HETATM   91  N   UNL     1      29.372  69.964  27.960  1.00  0.00    -0.247 NA
HETATM   92  C   UNL     1      29.798  69.971  26.658  1.00  0.00     0.221 C 
HETATM   93  O   UNL     1      30.952  70.315  26.415  1.00  0.00    -0.275 OA
HETATM   94  H   UNL     1      30.232  70.039  28.491  1.00  0.00     0.131 HD
BRANCH  92  95
HETATM   95  C   UNL     1      28.957  69.268  25.680  1.00  0.00     0.074 C 
HETATM   96  C   UNL     1      28.543  68.051  26.064  1.00  0.00     0.086 C 
BRANCH  96  97
HETATM   97  C   UNL     1      27.619  67.259  25.254  1.00  0.00     0.165 C 
HETATM   98  O   UNL     1      27.324  66.086  25.383  1.00  0.00    -0.647 OA
BRANCH  97  99
HETATM   99  O   UNL     1      27.115  68.021  24.271  1.00  0.00    -0.773 OA
HETATM  100  H   UNL     1      26.914  68.873  24.711  1.00  0.00     0.167 HD
ENDBRANCH  97  99
ENDBRANCH  96  97
ENDBRANCH  92  95
ENDBRANCH  64  91
BRANCH  65 101
HETATM  101  O   UNL     1      26.420  69.657  29.066  1.00  0.00    -0.391 OA
HETATM  102  H   UNL     1      26.953  69.689  29.883  1.00  0.00     0.210 HD
ENDBRANCH  65 101
ENDBRANCH  59  60
ENDBRANCH   5  59
TORSDOF 40
ENDMDL
MODEL 3
REMARK VINA RESULT:      -7.7      2.081      4.545
REMARK WARNING: 32 MAX_TORS EXCEEDED!!!
REMARK  40 active torsions:
REMARK  status: ('A' for Active; 'I' for Inactive)
REMARK    1  A    between atoms: C_1  and  O_44 
REMARK    2  A    between atoms: C_2  and  C_6 
REMARK    3  A    between atoms: C_3  and  O_10 
REMARK    4  A    between atoms: C_4  and  N_12 
REMARK    5  A    between atoms: C_5  and  O_14 
REMARK    6  A    between atoms: C_6  and  O_7 
REMARK    7  A    between atoms: O_14  and  C_27 
REMARK    8  A    between atoms: O_16  and  C_21 
REMARK    9  A    between atoms: C_18  and  C_33 
REMARK   10  A    between atoms: O_20  and  C_33 
REMARK   11  A    between atoms: O_22  and  C_30 
REMARK   12  A    between atoms: O_22  and  C_70 
REMARK   13  A    between atoms: O_23  and  C_24 
REMARK   14  A    between atoms: C_24  and  C_28 
REMARK       I    between atoms: N_29  and  C_32 
REMARK   15  A    between atoms: N_29  and  C_35 
REMARK   16  A    between atoms: C_31  and  C_32 
REMARK   17  A    between atoms: O_38  and  C_43 
REMARK   18  A    between atoms: C_40  and  C_55 
REMARK   19  A    between atoms: O_42  and  C_55 
REMARK   20  A    between atoms: O_44  and  C_52 
REMARK   21  A    between atoms: O_45  and  C_46 
REMARK   22  A    between atoms: C_46  and  C_50 
REMARK   23  A    between atoms: C_49  and  O_87 
REMARK       I    between atoms: N_51  and  C_54 
REMARK   24  A    between atoms: N_51  and  C_57 
REMARK   25  A    between atoms: C_53  and  C_54 
REMARK   26  A    between atoms: O_60  and  C_65 
REMARK   27  A    between atoms: C_62  and  C_76 
REMARK   28  A    between atoms: O_64  and  C_76 
REMARK   29  A    between atoms: O_66  and  C_67 
REMARK   30  A    between atoms: C_67  and  C_71 
REMARK       I    between atoms: N_72  and  C_75 
REMARK   31  A    between atoms: N_72  and  C_78 
REMARK   32  A    between atoms: C_74  and  C_75 
REMARK   33  A    between atoms: O_81  and  C_86 
REMARK   34  A    between atoms: C_83  and  C_98 
REMARK   35  A    between atoms: O_85  and  C_98 
REMARK   36  A    between atoms: O_87  and  C_95 
REMARK   37  A    between atoms: O_88  and  C_89 
REMARK   38  A    between atoms: C_89  and  C_93 
REMARK       I    between atoms: N_94  and  C_97 
REMARK   39  A    between atoms: N_94  and  C_100 
REMARK   40  A    between atoms: C_96  and  C_97 
ROOT
HETATM    1  C   UNL     1      20.364  69.594  25.397  1.00  0.00     0.186 C 
HETATM    2  C   UNL     1      21.793  70.178  25.281  1.00  0.00     0.179 C 
HETATM    3  C   UNL     1      19.724  70.018  26.735  1.00  0.00     0.187 C 
HETATM    4  C   UNL     1      20.691  69.649  27.884  1.00  0.00     0.303 C 
HETATM    5  C   UNL     1      22.051  70.409  27.699  1.00  0.00     0.296 C 
HETATM    6  O   UNL     1      22.160  71.012  26.404  1.00  0.00    -0.349 OA
ENDROOT
BRANCH   1   7
HETATM    7  O   UNL     1      19.554  70.049  24.301  1.00  0.00    -0.348 OA
BRANCH   7   8
HETATM    8  C   UNL     1      19.109  69.034  23.391  1.00  0.00     0.286 C 
HETATM    9  O   UNL     1      20.059  68.991  22.319  1.00  0.00    -0.349 OA
HETATM   10  C   UNL     1      19.794  67.999  21.307  1.00  0.00     0.180 C 
HETATM   11  C   UNL     1      18.359  68.067  20.739  1.00  0.00     0.186 C 
HETATM   12  C   UNL     1      17.610  69.278  21.321  1.00  0.00     0.177 C 
HETATM   13  C   UNL     1      17.674  69.326  22.855  1.00  0.00     0.171 C 
BRANCH  10  14
HETATM   14  C   UNL     1      20.140  66.595  21.825  1.00  0.00     0.198 C 
BRANCH  14  15
HETATM   15  O   UNL     1      19.940  65.611  20.814  1.00  0.00    -0.398 OA
HETATM   16  H   UNL     1      20.709  65.635  20.213  1.00  0.00     0.209 HD
ENDBRANCH  14  15
ENDBRANCH  10  14
BRANCH  11  17
HETATM   17  O   UNL     1      18.454  68.240  19.317  1.00  0.00    -0.348 OA
BRANCH  17  18
HETATM   18  C   UNL     1      17.863  67.229  18.495  1.00  0.00     0.286 C 
HETATM   19  O   UNL     1      17.297  66.264  19.376  1.00  0.00    -0.352 OA
HETATM   20  C   UNL     1      16.597  65.188  18.726  1.00  0.00     0.150 C 
HETATM   21  C   UNL     1      17.170  64.809  17.357  1.00  0.00     0.068 C 
HETATM   22  C   UNL     1      18.660  65.094  17.297  1.00  0.00     0.148 C 
HETATM   23  C   UNL     1      18.921  66.595  17.541  1.00  0.00     0.168 C 
BRANCH  20  24
HETATM   24  C   UNL     1      15.107  65.547  18.635  1.00  0.00     0.196 C 
BRANCH  24  25
HETATM   25  O   UNL     1      14.429  65.137  19.819  1.00  0.00    -0.398 OA
HETATM   26  H   UNL     1      15.123  64.944  20.480  1.00  0.00     0.209 HD
ENDBRANCH  24  25
ENDBRANCH  20  24
BRANCH  22  27
HETATM   27  O   UNL     1      19.314  64.278  18.274  1.00  0.00    -0.393 OA
HETATM   28  H   UNL     1      18.676  64.171  19.005  1.00  0.00     0.210 HD
ENDBRANCH  22  27
BRANCH  23  29
HETATM   29  N   UNL     1      20.307  66.843  17.961  1.00  0.00    -0.346 N 
HETATM   30  C   UNL     1      21.178  67.468  17.103  1.00  0.00     0.241 C 
HETATM   31  O   UNL     1      20.963  67.600  15.905  1.00  0.00    -0.269 OA
HETATM   32  H   UNL     1      20.475  66.855  18.966  1.00  0.00     0.163 HD
BRANCH  30  33
HETATM   33  C   UNL     1      22.333  68.085  17.784  1.00  0.00     0.080 C 
HETATM   34  C   UNL     1      22.290  68.202  19.118  1.00  0.00     0.086 C 
BRANCH  34  35
HETATM   35  C   UNL     1      23.478  68.663  19.838  1.00  0.00     0.165 C 
HETATM   36  O   UNL     1      24.510  69.086  19.357  1.00  0.00    -0.647 OA
BRANCH  35  37
HETATM   37  O   UNL     1      23.298  68.527  21.160  1.00  0.00    -0.773 OA
HETATM   38  H   UNL     1      24.122  68.102  21.475  1.00  0.00     0.167 HD
ENDBRANCH  35  37
ENDBRANCH  34  35
ENDBRANCH  30  33
ENDBRANCH  23  29
ENDBRANCH  17  18
ENDBRANCH  11  17
BRANCH  12  39
HETATM   39  O   UNL     1      18.093  70.510  20.752  1.00  0.00    -0.391 OA
HETATM   40  H   UNL     1      17.388  70.864  20.173  1.00  0.00     0.210 HD
ENDBRANCH  12  39
BRANCH  13  41
HETATM   41  N   UNL     1      17.107  70.591  23.321  1.00  0.00    -0.346 N 
HETATM   42  C   UNL     1      15.824  70.691  23.782  1.00  0.00     0.241 C 
HETATM   43  O   UNL     1      15.012  69.775  23.724  1.00  0.00    -0.269 OA
HETATM   44  H   UNL     1      17.763  71.347  23.483  1.00  0.00     0.163 HD
BRANCH  42  45
HETATM   45  C   UNL     1      15.522  72.010  24.371  1.00  0.00     0.080 C 
HETATM   46  C   UNL     1      16.474  72.656  25.056  1.00  0.00     0.086 C 
BRANCH  46  47
HETATM   47  C   UNL     1      16.181  73.982  25.596  1.00  0.00     0.165 C 
HETATM   48  O   UNL     1      15.158  74.627  25.457  1.00  0.00    -0.647 OA
BRANCH  47  49
HETATM   49  O   UNL     1      17.219  74.434  26.316  1.00  0.00    -0.773 OA
HETATM   50  H   UNL     1      17.934  74.546  25.657  1.00  0.00     0.167 HD
ENDBRANCH  47  49
ENDBRANCH  46  47
ENDBRANCH  42  45
ENDBRANCH  13  41
ENDBRANCH   7   8
ENDBRANCH   1   7
BRANCH   2  51
HETATM   51  C   UNL     1      22.842  69.072  25.084  1.00  0.00     0.198 C 
BRANCH  51  52
HETATM   52  O   UNL     1      22.627  68.381  23.858  1.00  0.00    -0.398 OA
HETATM   53  H   UNL     1      21.666  68.238  23.757  1.00  0.00     0.209 HD
ENDBRANCH  51  52
ENDBRANCH   2  51
BRANCH   3  54
HETATM   54  O   UNL     1      19.403  71.417  26.765  1.00  0.00    -0.391 OA
HETATM   55  H   UNL     1      19.127  71.642  27.675  1.00  0.00     0.210 HD
ENDBRANCH   3  54
BRANCH   4  56
HETATM   56  N   UNL     1      20.026  69.819  29.188  1.00  0.00     0.090 N 
HETATM   57  H   UNL     1      19.018  69.753  29.107  1.00  0.00     0.313 HD
HETATM   58  H   UNL     1      20.335  69.055  29.798  1.00  0.00     0.313 HD
ENDBRANCH   4  56
BRANCH   5  59
HETATM   59  O   UNL     1      22.181  71.470  28.665  1.00  0.00    -0.348 OA
BRANCH  59  60
HETATM   60  C   UNL     1      23.503  71.636  29.210  1.00  0.00     0.186 C 
HETATM   61  C   UNL     1      24.421  70.419  28.916  1.00  0.00     0.179 C 
HETATM   62  O   UNL     1      25.681  70.743  28.292  1.00  0.00    -0.349 OA
HETATM   63  C   UNL     1      26.425  71.843  28.829  1.00  0.00     0.281 C 
HETATM   64  C   UNL     1      25.530  73.066  29.188  1.00  0.00     0.149 C 
HETATM   65  C   UNL     1      24.105  72.926  28.623  1.00  0.00     0.172 C 
BRANCH  61  66
HETATM   66  C   UNL     1      24.707  69.608  30.189  1.00  0.00     0.198 C 
BRANCH  66  67
HETATM   67  O   UNL     1      23.616  69.693  31.099  1.00  0.00    -0.398 OA
HETATM   68  H   UNL     1      23.800  70.427  31.718  1.00  0.00     0.209 HD
ENDBRANCH  66  67
ENDBRANCH  61  66
BRANCH  63  69
HETATM   69  O   UNL     1      27.449  72.185  27.897  1.00  0.00    -0.349 OA
BRANCH  69  70
HETATM   70  C   UNL     1      28.544  71.263  27.804  1.00  0.00     0.186 C 
HETATM   71  C   UNL     1      28.697  70.683  26.376  1.00  0.00     0.176 C 
HETATM   72  O   UNL     1      30.089  70.506  25.998  1.00  0.00    -0.379 OA
HETATM   73  C   UNL     1      30.911  69.995  27.055  1.00  0.00     0.196 C 
HETATM   74  C   UNL     1      31.020  70.998  28.217  1.00  0.00     0.139 C 
HETATM   75  C   UNL     1      29.852  72.001  28.179  1.00  0.00     0.174 C 
BRANCH  71  76
HETATM   76  C   UNL     1      27.975  69.344  26.175  1.00  0.00     0.198 C 
BRANCH  76  77
HETATM   77  O   UNL     1      27.680  69.153  24.792  1.00  0.00    -0.398 OA
HETATM   78  H   UNL     1      26.977  68.475  24.749  1.00  0.00     0.209 HD
ENDBRANCH  76  77
ENDBRANCH  71  76
BRANCH  74  79
HETATM   79  N   UNL     1      32.306  71.696  28.191  1.00  0.00    -0.348 N 
HETATM   80  C   UNL     1      33.389  71.263  28.906  1.00  0.00     0.241 C 
HETATM   81  O   UNL     1      33.383  70.282  29.638  1.00  0.00    -0.269 OA
HETATM   82  H   UNL     1      32.320  72.606  27.744  1.00  0.00     0.163 HD
BRANCH  80  83
HETATM   83  C   UNL     1      34.601  72.080  28.678  1.00  0.00     0.080 C 
HETATM   84  C   UNL     1      35.795  71.474  28.627  1.00  0.00     0.086 C 
BRANCH  84  85
HETATM   85  C   UNL     1      36.981  72.265  28.294  1.00  0.00     0.165 C 
HETATM   86  O   UNL     1      37.417  73.224  28.900  1.00  0.00    -0.647 OA
BRANCH  85  87
HETATM   87  O   UNL     1      37.552  71.799  27.173  1.00  0.00    -0.773 OA
HETATM   88  H   UNL     1      36.971  71.061  26.894  1.00  0.00     0.167 HD
ENDBRANCH  85  87
ENDBRANCH  84  85
ENDBRANCH  80  83
ENDBRANCH  74  79
BRANCH  75  89
HETATM   89  O   UNL     1      30.150  73.059  27.248  1.00  0.00    -0.391 OA
HETATM   90  H   UNL     1      30.576  72.665  26.465  1.00  0.00     0.210 HD
ENDBRANCH  75  89
ENDBRANCH  69  70
ENDBRANCH  63  69
BRANCH  64  91
HETATM   91  N   UNL     1      26.120  74.414  29.111  1.00  0.00    -0.247 NA
HETATM   92  C   UNL     1      25.819  75.388  30.026  1.00  0.00     0.221 C 
HETATM   93  O   UNL     1      26.674  75.717  30.844  1.00  0.00    -0.275 OA
HETATM   94  H   UNL     1      27.128  74.330  29.178  1.00  0.00     0.131 HD
BRANCH  92  95
HETATM   95  C   UNL     1      24.617  76.193  29.768  1.00  0.00     0.074 C 
HETATM   96  C   UNL     1      24.536  77.329  30.478  1.00  0.00     0.086 C 
BRANCH  96  97
HETATM   97  C   UNL     1      23.459  78.294  30.271  1.00  0.00     0.165 C 
HETATM   98  O   UNL     1      23.534  79.419  29.816  1.00  0.00    -0.647 OA
BRANCH  97  99
HETATM   99  O   UNL     1      22.296  77.767  30.691  1.00  0.00    -0.773 OA
HETATM  100  H   UNL     1      22.567  77.071  31.324  1.00  0.00     0.167 HD
ENDBRANCH  97  99
ENDBRANCH  96  97
ENDBRANCH  92  95
ENDBRANCH  64  91
BRANCH  65 101
HETATM  101  O   UNL     1      24.098  72.904  27.198  1.00  0.00    -0.391 OA
HETATM  102  H   UNL     1      23.549  73.657  26.902  1.00  0.00     0.210 HD
ENDBRANCH  65 101
ENDBRANCH  59  60
ENDBRANCH   5  59
TORSDOF 40
ENDMDL
MODEL 4
REMARK VINA RESULT:      -7.6      2.176      3.080
REMARK WARNING: 32 MAX_TORS EXCEEDED!!!
REMARK  40 active torsions:
REMARK  status: ('A' for Active; 'I' for Inactive)
REMARK    1  A    between atoms: C_1  and  O_44 
REMARK    2  A    between atoms: C_2  and  C_6 
REMARK    3  A    between atoms: C_3  and  O_10 
REMARK    4  A    between atoms: C_4  and  N_12 
REMARK    5  A    between atoms: C_5  and  O_14 
REMARK    6  A    between atoms: C_6  and  O_7 
REMARK    7  A    between atoms: O_14  and  C_27 
REMARK    8  A    between atoms: O_16  and  C_21 
REMARK    9  A    between atoms: C_18  and  C_33 
REMARK   10  A    between atoms: O_20  and  C_33 
REMARK   11  A    between atoms: O_22  and  C_30 
REMARK   12  A    between atoms: O_22  and  C_70 
REMARK   13  A    between atoms: O_23  and  C_24 
REMARK   14  A    between atoms: C_24  and  C_28 
REMARK       I    between atoms: N_29  and  C_32 
REMARK   15  A    between atoms: N_29  and  C_35 
REMARK   16  A    between atoms: C_31  and  C_32 
REMARK   17  A    between atoms: O_38  and  C_43 
REMARK   18  A    between atoms: C_40  and  C_55 
REMARK   19  A    between atoms: O_42  and  C_55 
REMARK   20  A    between atoms: O_44  and  C_52 
REMARK   21  A    between atoms: O_45  and  C_46 
REMARK   22  A    between atoms: C_46  and  C_50 
REMARK   23  A    between atoms: C_49  and  O_87 
REMARK       I    between atoms: N_51  and  C_54 
REMARK   24  A    between atoms: N_51  and  C_57 
REMARK   25  A    between atoms: C_53  and  C_54 
REMARK   26  A    between atoms: O_60  and  C_65 
REMARK   27  A    between atoms: C_62  and  C_76 
REMARK   28  A    between atoms: O_64  and  C_76 
REMARK   29  A    between atoms: O_66  and  C_67 
REMARK   30  A    between atoms: C_67  and  C_71 
REMARK       I    between atoms: N_72  and  C_75 
REMARK   31  A    between atoms: N_72  and  C_78 
REMARK   32  A    between atoms: C_74  and  C_75 
REMARK   33  A    between atoms: O_81  and  C_86 
REMARK   34  A    between atoms: C_83  and  C_98 
REMARK   35  A    between atoms: O_85  and  C_98 
REMARK   36  A    between atoms: O_87  and  C_95 
REMARK   37  A    between atoms: O_88  and  C_89 
REMARK   38  A    between atoms: C_89  and  C_93 
REMARK       I    between atoms: N_94  and  C_97 
REMARK   39  A    between atoms: N_94  and  C_100 
REMARK   40  A    between atoms: C_96  and  C_97 
ROOT
HETATM    1  C   UNL     1      22.003  69.945  25.733  1.00  0.00     0.186 C 
HETATM    2  C   UNL     1      22.945  68.741  25.486  1.00  0.00     0.179 C 
HETATM    3  C   UNL     1      22.781  71.100  26.399  1.00  0.00     0.187 C 
HETATM    4  C   UNL     1      23.504  70.551  27.650  1.00  0.00     0.303 C 
HETATM    5  C   UNL     1      24.513  69.424  27.230  1.00  0.00     0.296 C 
HETATM    6  O   UNL     1      24.313  68.999  25.877  1.00  0.00    -0.349 OA
ENDROOT
BRANCH   1   7
HETATM    7  O   UNL     1      21.435  70.390  24.490  1.00  0.00    -0.348 OA
BRANCH   7   8
HETATM    8  C   UNL     1      20.637  69.427  23.789  1.00  0.00     0.286 C 
HETATM    9  O   UNL     1      21.256  69.223  22.513  1.00  0.00    -0.349 OA
HETATM   10  C   UNL     1      20.608  68.255  21.666  1.00  0.00     0.180 C 
HETATM   11  C   UNL     1      19.095  68.511  21.484  1.00  0.00     0.186 C 
HETATM   12  C   UNL     1      18.690  69.829  22.165  1.00  0.00     0.177 C 
HETATM   13  C   UNL     1      19.162  69.906  23.625  1.00  0.00     0.171 C 
BRANCH  10  14
HETATM   14  C   UNL     1      20.892  66.828  22.161  1.00  0.00     0.198 C 
BRANCH  14  15
HETATM   15  O   UNL     1      20.327  65.858  21.285  1.00  0.00    -0.398 OA
HETATM   16  H   UNL     1      21.015  65.591  20.646  1.00  0.00     0.209 HD
ENDBRANCH  14  15
ENDBRANCH  10  14
BRANCH  11  17
HETATM   17  O   UNL     1      18.834  68.634  20.077  1.00  0.00    -0.348 OA
BRANCH  17  18
HETATM   18  C   UNL     1      17.988  67.645  19.482  1.00  0.00     0.286 C 
HETATM   19  O   UNL     1      17.560  66.786  20.532  1.00  0.00    -0.352 OA
HETATM   20  C   UNL     1      16.642  65.752  20.132  1.00  0.00     0.150 C 
HETATM   21  C   UNL     1      16.854  65.250  18.700  1.00  0.00     0.068 C 
HETATM   22  C   UNL     1      18.310  65.385  18.291  1.00  0.00     0.148 C 
HETATM   23  C   UNL     1      18.745  66.864  18.364  1.00  0.00     0.168 C 
BRANCH  20  24
HETATM   24  C   UNL     1      15.206  66.249  20.349  1.00  0.00     0.196 C 
BRANCH  24  25
HETATM   25  O   UNL     1      14.603  66.572  19.100  1.00  0.00    -0.398 OA
HETATM   26  H   UNL     1      13.760  67.021  19.310  1.00  0.00     0.209 HD
ENDBRANCH  24  25
ENDBRANCH  20  24
BRANCH  22  27
HETATM   27  O   UNL     1      19.099  64.560  19.154  1.00  0.00    -0.393 OA
HETATM   28  H   UNL     1      18.583  63.742  19.288  1.00  0.00     0.210 HD
ENDBRANCH  22  27
BRANCH  23  29
HETATM   29  N   UNL     1      20.206  66.996  18.446  1.00  0.00    -0.346 N 
HETATM   30  C   UNL     1      20.888  67.657  17.455  1.00  0.00     0.241 C 
HETATM   31  O   UNL     1      20.400  67.918  16.363  1.00  0.00    -0.269 OA
HETATM   32  H   UNL     1      20.612  66.900  19.376  1.00  0.00     0.163 HD
BRANCH  30  33
HETATM   33  C   UNL     1      22.216  68.142  17.878  1.00  0.00     0.080 C 
HETATM   34  C   UNL     1      22.311  68.776  19.054  1.00  0.00     0.086 C 
BRANCH  34  35
HETATM   35  C   UNL     1      23.632  69.130  19.575  1.00  0.00     0.165 C 
HETATM   36  O   UNL     1      24.493  68.370  19.971  1.00  0.00    -0.647 OA
BRANCH  35  37
HETATM   37  O   UNL     1      23.778  70.464  19.596  1.00  0.00    -0.773 OA
HETATM   38  H   UNL     1      22.894  70.801  19.852  1.00  0.00     0.167 HD
ENDBRANCH  35  37
ENDBRANCH  34  35
ENDBRANCH  30  33
ENDBRANCH  23  29
ENDBRANCH  17  18
ENDBRANCH  11  17
BRANCH  12  39
HETATM   39  O   UNL     1      19.162  70.966  21.417  1.00  0.00    -0.391 OA
HETATM   40  H   UNL     1      18.383  71.397  21.011  1.00  0.00     0.210 HD
ENDBRANCH  12  39
BRANCH  13  41
HETATM   41  N   UNL     1      18.907  71.249  24.143  1.00  0.00    -0.346 N 
HETATM   42  C   UNL     1      17.703  71.608  24.681  1.00  0.00     0.241 C 
HETATM   43  O   UNL     1      16.711  70.890  24.656  1.00  0.00    -0.269 OA
HETATM   44  H   UNL     1      19.719  71.842  24.278  1.00  0.00     0.163 HD
BRANCH  42  45
HETATM   45  C   UNL     1      17.726  72.945  25.308  1.00  0.00     0.080 C 
HETATM   46  C   UNL     1      17.000  73.163  26.411  1.00  0.00     0.086 C 
BRANCH  46  47
HETATM   47  C   UNL     1      17.064  74.476  27.052  1.00  0.00     0.165 C 
HETATM   48  O   UNL     1      17.420  74.727  28.188  1.00  0.00    -0.647 OA
BRANCH  47  49
HETATM   49  O   UNL     1      16.677  75.433  26.196  1.00  0.00    -0.773 OA
HETATM   50  H   UNL     1      17.499  75.674  25.721  1.00  0.00     0.167 HD
ENDBRANCH  47  49
ENDBRANCH  46  47
ENDBRANCH  42  45
ENDBRANCH  13  41
ENDBRANCH   7   8
ENDBRANCH   1   7
BRANCH   2  51
HETATM   51  C   UNL     1      22.431  67.470  26.181  1.00  0.00     0.198 C 
BRANCH  51  52
HETATM   52  O   UNL     1      21.526  66.762  25.340  1.00  0.00    -0.398 OA
HETATM   53  H   UNL     1      20.719  66.573  25.856  1.00  0.00     0.209 HD
ENDBRANCH  51  52
ENDBRANCH   2  51
BRANCH   3  54
HETATM   54  O   UNL     1      23.713  71.717  25.497  1.00  0.00    -0.391 OA
HETATM   55  H   UNL     1      24.312  71.021  25.164  1.00  0.00     0.210 HD
ENDBRANCH   3  54
BRANCH   4  56
HETATM   56  N   UNL     1      24.065  71.657  28.445  1.00  0.00     0.090 N 
HETATM   57  H   UNL     1      23.397  72.410  28.564  1.00  0.00     0.313 HD
HETATM   58  H   UNL     1      24.285  71.292  29.377  1.00  0.00     0.313 HD
ENDBRANCH   4  56
BRANCH   5  59
HETATM   59  O   UNL     1      25.872  69.892  27.323  1.00  0.00    -0.348 OA
BRANCH  59  60
HETATM   60  C   UNL     1      26.876  68.868  27.184  1.00  0.00     0.186 C 
HETATM   61  C   UNL     1      28.238  69.436  26.703  1.00  0.00     0.179 C 
HETATM   62  O   UNL     1      29.369  69.086  27.528  1.00  0.00    -0.349 OA
HETATM   63  C   UNL     1      29.489  67.722  27.947  1.00  0.00     0.281 C 
HETATM   64  C   UNL     1      28.132  67.099  28.387  1.00  0.00     0.149 C 
HETATM   65  C   UNL     1      27.030  68.163  28.545  1.00  0.00     0.172 C 
BRANCH  61  66
HETATM   66  C   UNL     1      28.545  69.015  25.258  1.00  0.00     0.198 C 
BRANCH  66  67
HETATM   67  O   UNL     1      27.347  68.902  24.499  1.00  0.00    -0.398 OA
HETATM   68  H   UNL     1      26.638  68.605  25.103  1.00  0.00     0.209 HD
ENDBRANCH  66  67
ENDBRANCH  61  66
BRANCH  63  69
HETATM   69  O   UNL     1      30.467  67.659  28.983  1.00  0.00    -0.349 OA
BRANCH  69  70
HETATM   70  C   UNL     1      31.451  68.703  28.980  1.00  0.00     0.186 C 
HETATM   71  C   UNL     1      31.668  69.304  30.391  1.00  0.00     0.176 C 
HETATM   72  O   UNL     1      33.059  69.645  30.639  1.00  0.00    -0.379 OA
HETATM   73  C   UNL     1      33.714  70.243  29.513  1.00  0.00     0.196 C 
HETATM   74  C   UNL     1      33.829  69.254  28.339  1.00  0.00     0.139 C 
HETATM   75  C   UNL     1      32.795  68.121  28.480  1.00  0.00     0.174 C 
BRANCH  71  76
HETATM   76  C   UNL     1      30.816  70.550  30.667  1.00  0.00     0.198 C 
BRANCH  76  77
HETATM   77  O   UNL     1      29.763  70.642  29.707  1.00  0.00    -0.398 OA
HETATM   78  H   UNL     1      29.104  71.261  30.078  1.00  0.00     0.209 HD
ENDBRANCH  76  77
ENDBRANCH  71  76
BRANCH  74  79
HETATM   79  N   UNL     1      35.185  68.711  28.241  1.00  0.00    -0.348 N 
HETATM   80  C   UNL     1      36.236  69.446  27.763  1.00  0.00     0.241 C 
HETATM   81  O   UNL     1      36.143  70.598  27.359  1.00  0.00    -0.269 OA
HETATM   82  H   UNL     1      35.287  67.714  28.395  1.00  0.00     0.163 HD
BRANCH  80  83
HETATM   83  C   UNL     1      37.524  68.721  27.815  1.00  0.00     0.080 C 
HETATM   84  C   UNL     1      37.647  67.670  28.638  1.00  0.00     0.086 C 
BRANCH  84  85
HETATM   85  C   UNL     1      38.883  66.887  28.611  1.00  0.00     0.165 C 
HETATM   86  O   UNL     1      39.024  65.727  28.946  1.00  0.00    -0.647 OA
BRANCH  85  87
HETATM   87  O   UNL     1      39.903  67.639  28.172  1.00  0.00    -0.773 OA
HETATM   88  H   UNL     1      39.479  68.308  27.595  1.00  0.00     0.167 HD
ENDBRANCH  85  87
ENDBRANCH  84  85
ENDBRANCH  80  83
ENDBRANCH  74  79
BRANCH  75  89
HETATM   89  O   UNL     1      33.300  67.110  29.372  1.00  0.00    -0.391 OA
HETATM   90  H   UNL     1      32.846  66.271  29.170  1.00  0.00     0.210 HD
ENDBRANCH  75  89
ENDBRANCH  69  70
ENDBRANCH  63  69
BRANCH  64  91
HETATM   91  N   UNL     1      28.146  66.035  29.407  1.00  0.00    -0.247 NA
HETATM   92  C   UNL     1      27.787  66.275  30.707  1.00  0.00     0.221 C 
HETATM   93  O   UNL     1      26.722  65.824  31.120  1.00  0.00    -0.275 OA
HETATM   94  H   UNL     1      27.509  65.301  29.118  1.00  0.00     0.131 HD
BRANCH  92  95
HETATM   95  C   UNL     1      28.837  66.776  31.604  1.00  0.00     0.074 C 
HETATM   96  C   UNL     1      29.743  65.860  31.979  1.00  0.00     0.086 C 
BRANCH  96  97
HETATM   97  C   UNL     1      30.908  66.212  32.787  1.00  0.00     0.165 C 
HETATM   98  O   UNL     1      30.945  66.497  33.969  1.00  0.00    -0.647 OA
BRANCH  97  99
HETATM   99  O   UNL     1      32.009  66.205  32.018  1.00  0.00    -0.773 OA
HETATM  100  H   UNL     1      31.933  65.375  31.504  1.00  0.00     0.167 HD
ENDBRANCH  97  99
ENDBRANCH  96  97
ENDBRANCH  92  95
ENDBRANCH  64  91
BRANCH  65 101
HETATM  101  O   UNL     1      27.333  69.092  29.583  1.00  0.00    -0.391 OA
HETATM  102  H   UNL     1      26.714  69.842  29.485  1.00  0.00     0.210 HD
ENDBRANCH  65 101
ENDBRANCH  59  60
ENDBRANCH   5  59
TORSDOF 40
ENDMDL
MODEL 5
REMARK VINA RESULT:      -7.4      3.625      8.619
REMARK WARNING: 32 MAX_TORS EXCEEDED!!!
REMARK  40 active torsions:
REMARK  status: ('A' for Active; 'I' for Inactive)
REMARK    1  A    between atoms: C_1  and  O_44 
REMARK    2  A    between atoms: C_2  and  C_6 
REMARK    3  A    between atoms: C_3  and  O_10 
REMARK    4  A    between atoms: C_4  and  N_12 
REMARK    5  A    between atoms: C_5  and  O_14 
REMARK    6  A    between atoms: C_6  and  O_7 
REMARK    7  A    between atoms: O_14  and  C_27 
REMARK    8  A    between atoms: O_16  and  C_21 
REMARK    9  A    between atoms: C_18  and  C_33 
REMARK   10  A    between atoms: O_20  and  C_33 
REMARK   11  A    between atoms: O_22  and  C_30 
REMARK   12  A    between atoms: O_22  and  C_70 
REMARK   13  A    between atoms: O_23  and  C_24 
REMARK   14  A    between atoms: C_24  and  C_28 
REMARK       I    between atoms: N_29  and  C_32 
REMARK   15  A    between atoms: N_29  and  C_35 
REMARK   16  A    between atoms: C_31  and  C_32 
REMARK   17  A    between atoms: O_38  and  C_43 
REMARK   18  A    between atoms: C_40  and  C_55 
REMARK   19  A    between atoms: O_42  and  C_55 
REMARK   20  A    between atoms: O_44  and  C_52 
REMARK   21  A    between atoms: O_45  and  C_46 
REMARK   22  A    between atoms: C_46  and  C_50 
REMARK   23  A    between atoms: C_49  and  O_87 
REMARK       I    between atoms: N_51  and  C_54 
REMARK   24  A    between atoms: N_51  and  C_57 
REMARK   25  A    between atoms: C_53  and  C_54 
REMARK   26  A    between atoms: O_60  and  C_65 
REMARK   27  A    between atoms: C_62  and  C_76 
REMARK   28  A    between atoms: O_64  and  C_76 
REMARK   29  A    between atoms: O_66  and  C_67 
REMARK   30  A    between atoms: C_67  and  C_71 
REMARK       I    between atoms: N_72  and  C_75 
REMARK   31  A    between atoms: N_72  and  C_78 
REMARK   32  A    between atoms: C_74  and  C_75 
REMARK   33  A    between atoms: O_81  and  C_86 
REMARK   34  A    between atoms: C_83  and  C_98 
REMARK   35  A    between atoms: O_85  and  C_98 
REMARK   36  A    between atoms: O_87  and  C_95 
REMARK   37  A    between atoms: O_88  and  C_89 
REMARK   38  A    between atoms: C_89  and  C_93 
REMARK       I    between atoms: N_94  and  C_97 
REMARK   39  A    between atoms: N_94  and  C_100 
REMARK   40  A    between atoms: C_96  and  C_97 
ROOT
HETATM    1  C   UNL     1      28.728  70.974  27.821  1.00  0.00     0.186 C 
HETATM    2  C   UNL     1      29.379  70.018  26.791  1.00  0.00     0.179 C 
HETATM    3  C   UNL     1      29.741  72.051  28.261  1.00  0.00     0.187 C 
HETATM    4  C   UNL     1      31.035  71.348  28.730  1.00  0.00     0.303 C 
HETATM    5  C   UNL     1      31.647  70.516  27.548  1.00  0.00     0.296 C 
HETATM    6  O   UNL     1      30.735  70.387  26.452  1.00  0.00    -0.349 OA
ENDROOT
BRANCH   1   7
HETATM    7  O   UNL     1      27.567  71.599  27.248  1.00  0.00    -0.348 OA
BRANCH   7   8
HETATM    8  C   UNL     1      26.447  70.735  27.010  1.00  0.00     0.286 C 
HETATM    9  O   UNL     1      26.119  70.851  25.620  1.00  0.00    -0.349 OA
HETATM   10  C   UNL     1      25.024  70.026  25.178  1.00  0.00     0.180 C 
HETATM   11  C   UNL     1      23.749  70.184  26.037  1.00  0.00     0.186 C 
HETATM   12  C   UNL     1      23.943  71.295  27.084  1.00  0.00     0.177 C 
HETATM   13  C   UNL     1      25.227  71.110  27.906  1.00  0.00     0.171 C 
BRANCH  10  14
HETATM   14  C   UNL     1      25.464  68.558  25.071  1.00  0.00     0.198 C 
BRANCH  14  15
HETATM   15  O   UNL     1      26.666  68.436  24.317  1.00  0.00    -0.398 OA
HETATM   16  H   UNL     1      26.512  68.833  23.438  1.00  0.00     0.209 HD
ENDBRANCH  14  15
ENDBRANCH  10  14
BRANCH  11  17
HETATM   17  O   UNL     1      22.675  70.571  25.166  1.00  0.00    -0.348 OA
BRANCH  17  18
HETATM   18  C   UNL     1      21.345  70.260  25.592  1.00  0.00     0.286 C 
HETATM   19  O   UNL     1      21.463  69.295  26.632  1.00  0.00    -0.352 OA
HETATM   20  C   UNL     1      20.217  68.900  27.236  1.00  0.00     0.150 C 
HETATM   21  C   UNL     1      19.024  68.925  26.275  1.00  0.00     0.068 C 
HETATM   22  C   UNL     1      19.473  68.656  24.849  1.00  0.00     0.148 C 
HETATM   23  C   UNL     1      20.487  69.730  24.403  1.00  0.00     0.168 C 
BRANCH  20  24
HETATM   24  C   UNL     1      19.964  69.772  28.473  1.00  0.00     0.196 C 
BRANCH  24  25
HETATM   25  O   UNL     1      21.075  69.698  29.362  1.00  0.00    -0.398 OA
HETATM   26  H   UNL     1      20.820  70.197  30.163  1.00  0.00     0.209 HD
ENDBRANCH  24  25
ENDBRANCH  20  24
BRANCH  22  27
HETATM   27  O   UNL     1      20.037  67.342  24.795  1.00  0.00    -0.393 OA
HETATM   28  H   UNL     1      20.811  67.406  24.205  1.00  0.00     0.210 HD
ENDBRANCH  22  27
BRANCH  23  29
HETATM   29  N   UNL     1      21.291  69.274  23.261  1.00  0.00    -0.346 N 
HETATM   30  C   UNL     1      21.162  69.897  22.044  1.00  0.00     0.241 C 
HETATM   31  O   UNL     1      20.229  70.637  21.764  1.00  0.00    -0.269 OA
HETATM   32  H   UNL     1      22.140  68.758  23.489  1.00  0.00     0.163 HD
BRANCH  30  33
HETATM   33  C   UNL     1      22.325  69.698  21.156  1.00  0.00     0.080 C 
HETATM   34  C   UNL     1      22.648  68.445  20.812  1.00  0.00     0.086 C 
BRANCH  34  35
HETATM   35  C   UNL     1      23.692  68.220  19.812  1.00  0.00     0.165 C 
HETATM   36  O   UNL     1      23.842  67.237  19.114  1.00  0.00    -0.647 OA
BRANCH  35  37
HETATM   37  O   UNL     1      24.530  69.267  19.776  1.00  0.00    -0.773 OA
HETATM   38  H   UNL     1      23.952  70.047  19.914  1.00  0.00     0.167 HD
ENDBRANCH  35  37
ENDBRANCH  34  35
ENDBRANCH  30  33
ENDBRANCH  23  29
ENDBRANCH  17  18
ENDBRANCH  11  17
BRANCH  12  39
HETATM   39  O   UNL     1      23.915  72.598  26.468  1.00  0.00    -0.391 OA
HETATM   40  H   UNL     1      24.826  72.808  26.182  1.00  0.00     0.210 HD
ENDBRANCH  12  39
BRANCH  13  41
HETATM   41  N   UNL     1      25.437  72.292  28.741  1.00  0.00    -0.346 N 
HETATM   42  C   UNL     1      25.547  72.214  30.101  1.00  0.00     0.241 C 
HETATM   43  O   UNL     1      25.350  71.187  30.738  1.00  0.00    -0.269 OA
HETATM   44  H   UNL     1      25.705  73.143  28.260  1.00  0.00     0.163 HD
BRANCH  42  45
HETATM   45  C   UNL     1      25.940  73.494  30.723  1.00  0.00     0.080 C 
HETATM   46  C   UNL     1      25.656  74.642  30.096  1.00  0.00     0.086 C 
BRANCH  46  47
HETATM   47  C   UNL     1      26.008  75.906  30.742  1.00  0.00     0.165 C 
HETATM   48  O   UNL     1      25.392  76.955  30.697  1.00  0.00    -0.647 OA
BRANCH  47  49
HETATM   49  O   UNL     1      27.145  75.774  31.441  1.00  0.00    -0.773 OA
HETATM   50  H   UNL     1      26.931  75.098  32.116  1.00  0.00     0.167 HD
ENDBRANCH  47  49
ENDBRANCH  46  47
ENDBRANCH  42  45
ENDBRANCH  13  41
ENDBRANCH   7   8
ENDBRANCH   1   7
BRANCH   2  51
HETATM   51  C   UNL     1      29.336  68.558  27.270  1.00  0.00     0.198 C 
BRANCH  51  52
HETATM   52  O   UNL     1      28.703  67.725  26.304  1.00  0.00    -0.398 OA
HETATM   53  H   UNL     1      28.968  66.802  26.481  1.00  0.00     0.209 HD
ENDBRANCH  51  52
ENDBRANCH   2  51
BRANCH   3  54
HETATM   54  O   UNL     1      30.020  72.994  27.215  1.00  0.00    -0.391 OA
HETATM   55  H   UNL     1      30.751  72.634  26.675  1.00  0.00     0.210 HD
ENDBRANCH   3  54
BRANCH   4  56
HETATM   56  N   UNL     1      31.939  72.315  29.376  1.00  0.00     0.090 N 
HETATM   57  H   UNL     1      31.662  72.507  30.332  1.00  0.00     0.313 HD
HETATM   58  H   UNL     1      32.875  71.897  29.406  1.00  0.00     0.313 HD
ENDBRANCH   4  56
BRANCH   5  59
HETATM   59  O   UNL     1      32.832  71.153  27.032  1.00  0.00    -0.348 OA
BRANCH  59  60
HETATM   60  C   UNL     1      33.958  71.157  27.929  1.00  0.00     0.186 C 
HETATM   61  C   UNL     1      34.721  69.805  27.926  1.00  0.00     0.179 C 
HETATM   62  O   UNL     1      36.139  69.906  27.682  1.00  0.00    -0.349 OA
HETATM   63  C   UNL     1      36.865  70.917  28.392  1.00  0.00     0.281 C 
HETATM   64  C   UNL     1      36.108  72.275  28.462  1.00  0.00     0.149 C 
HETATM   65  C   UNL     1      34.893  72.310  27.517  1.00  0.00     0.172 C 
BRANCH  61  66
HETATM   66  C   UNL     1      34.511  69.038  29.241  1.00  0.00     0.198 C 
BRANCH  66  67
HETATM   67  O   UNL     1      33.889  69.866  30.216  1.00  0.00    -0.398 OA
HETATM   68  H   UNL     1      33.837  69.359  31.050  1.00  0.00     0.209 HD
ENDBRANCH  66  67
ENDBRANCH  61  66
BRANCH  63  69
HETATM   69  O   UNL     1      38.149  71.051  27.785  1.00  0.00    -0.349 OA
BRANCH  69  70
HETATM   70  C   UNL     1      39.272  70.719  28.614  1.00  0.00     0.186 C 
HETATM   71  C   UNL     1      39.528  69.192  28.662  1.00  0.00     0.176 C 
HETATM   72  O   UNL     1      40.945  68.870  28.693  1.00  0.00    -0.379 OA
HETATM   73  C   UNL     1      41.713  69.738  29.537  1.00  0.00     0.196 C 
HETATM   74  C   UNL     1      41.723  71.181  28.999  1.00  0.00     0.139 C 
HETATM   75  C   UNL     1      40.534  71.414  28.048  1.00  0.00     0.174 C 
BRANCH  71  76
HETATM   76  C   UNL     1      38.855  68.492  29.850  1.00  0.00     0.198 C 
BRANCH  76  77
HETATM   77  O   UNL     1      37.717  67.756  29.400  1.00  0.00    -0.398 OA
HETATM   78  H   UNL     1      37.028  67.867  30.085  1.00  0.00     0.209 HD
ENDBRANCH  76  77
ENDBRANCH  71  76
BRANCH  74  79
HETATM   79  N   UNL     1      42.990  71.484  28.332  1.00  0.00    -0.348 N 
HETATM   80  C   UNL     1      43.667  72.654  28.543  1.00  0.00     0.241 C 
HETATM   81  O   UNL     1      43.277  73.552  29.279  1.00  0.00    -0.269 OA
HETATM   82  H   UNL     1      43.270  70.860  27.584  1.00  0.00     0.163 HD
BRANCH  80  83
HETATM   83  C   UNL     1      44.954  72.720  27.818  1.00  0.00     0.080 C 
HETATM   84  C   UNL     1      45.396  71.631  27.174  1.00  0.00     0.086 C 
BRANCH  84  85
HETATM   85  C   UNL     1      46.613  71.725  26.367  1.00  0.00     0.165 C 
HETATM   86  O   UNL     1      46.894  71.069  25.383  1.00  0.00    -0.647 OA
BRANCH  85  87
HETATM   87  O   UNL     1      47.437  72.655  26.873  1.00  0.00    -0.773 OA
HETATM   88  H   UNL     1      47.617  73.254  26.119  1.00  0.00     0.167 HD
ENDBRANCH  85  87
ENDBRANCH  84  85
ENDBRANCH  80  83
ENDBRANCH  74  79
BRANCH  75  89
HETATM   89  O   UNL     1      40.861  70.929  26.733  1.00  0.00    -0.391 OA
HETATM   90  H   UNL     1      40.607  71.611  26.084  1.00  0.00     0.210 HD
ENDBRANCH  75  89
ENDBRANCH  69  70
ENDBRANCH  63  69
BRANCH  64  91
HETATM   91  N   UNL     1      36.898  73.516  28.536  1.00  0.00    -0.247 NA
HETATM   92  C   UNL     1      37.418  73.973  29.718  1.00  0.00     0.221 C 
HETATM   93  O   UNL     1      38.631  73.904  29.897  1.00  0.00    -0.275 OA
HETATM   94  H   UNL     1      37.713  73.418  27.942  1.00  0.00     0.131 HD
BRANCH  92  95
HETATM   95  C   UNL     1      36.538  74.802  30.555  1.00  0.00     0.074 C 
HETATM   96  C   UNL     1      36.364  76.058  30.117  1.00  0.00     0.086 C 
BRANCH  96  97
HETATM   97  C   UNL     1      35.443  76.983  30.774  1.00  0.00     0.165 C 
HETATM   98  O   UNL     1      35.104  77.004  31.942  1.00  0.00    -0.647 OA
BRANCH  97  99
HETATM   99  O   UNL     1      34.963  77.857  29.873  1.00  0.00    -0.773 OA
HETATM  100  H   UNL     1      34.222  78.294  30.340  1.00  0.00     0.167 HD
ENDBRANCH  97  99
ENDBRANCH  96  97
ENDBRANCH  92  95
ENDBRANCH  64  91
BRANCH  65 101
HETATM  101  O   UNL     1      35.280  72.205  26.149  1.00  0.00    -0.391 OA
HETATM  102  H   UNL     1      34.936  71.352  25.819  1.00  0.00     0.210 HD
ENDBRANCH  65 101
ENDBRANCH  59  60
ENDBRANCH   5  59
TORSDOF 40
ENDMDL
MODEL 6
REMARK VINA RESULT:      -7.4      2.926     15.220
REMARK WARNING: 32 MAX_TORS EXCEEDED!!!
REMARK  40 active torsions:
REMARK  status: ('A' for Active; 'I' for Inactive)
REMARK    1  A    between atoms: C_1  and  O_44 
REMARK    2  A    between atoms: C_2  and  C_6 
REMARK    3  A    between atoms: C_3  and  O_10 
REMARK    4  A    between atoms: C_4  and  N_12 
REMARK    5  A    between atoms: C_5  and  O_14 
REMARK    6  A    between atoms: C_6  and  O_7 
REMARK    7  A    between atoms: O_14  and  C_27 
REMARK    8  A    between atoms: O_16  and  C_21 
REMARK    9  A    between atoms: C_18  and  C_33 
REMARK   10  A    between atoms: O_20  and  C_33 
REMARK   11  A    between atoms: O_22  and  C_30 
REMARK   12  A    between atoms: O_22  and  C_70 
REMARK   13  A    between atoms: O_23  and  C_24 
REMARK   14  A    between atoms: C_24  and  C_28 
REMARK       I    between atoms: N_29  and  C_32 
REMARK   15  A    between atoms: N_29  and  C_35 
REMARK   16  A    between atoms: C_31  and  C_32 
REMARK   17  A    between atoms: O_38  and  C_43 
REMARK   18  A    between atoms: C_40  and  C_55 
REMARK   19  A    between atoms: O_42  and  C_55 
REMARK   20  A    between atoms: O_44  and  C_52 
REMARK   21  A    between atoms: O_45  and  C_46 
REMARK   22  A    between atoms: C_46  and  C_50 
REMARK   23  A    between atoms: C_49  and  O_87 
REMARK       I    between atoms: N_51  and  C_54 
REMARK   24  A    between atoms: N_51  and  C_57 
REMARK   25  A    between atoms: C_53  and  C_54 
REMARK   26  A    between atoms: O_60  and  C_65 
REMARK   27  A    between atoms: C_62  and  C_76 
REMARK   28  A    between atoms: O_64  and  C_76 
REMARK   29  A    between atoms: O_66  and  C_67 
REMARK   30  A    between atoms: C_67  and  C_71 
REMARK       I    between atoms: N_72  and  C_75 
REMARK   31  A    between atoms: N_72  and  C_78 
REMARK   32  A    between atoms: C_74  and  C_75 
REMARK   33  A    between atoms: O_81  and  C_86 
REMARK   34  A    between atoms: C_83  and  C_98 
REMARK   35  A    between atoms: O_85  and  C_98 
REMARK   36  A    between atoms: O_87  and  C_95 
REMARK   37  A    between atoms: O_88  and  C_89 
REMARK   38  A    between atoms: C_89  and  C_93 
REMARK       I    between atoms: N_94  and  C_97 
REMARK   39  A    between atoms: N_94  and  C_100 
REMARK   40  A    between atoms: C_96  and  C_97 
ROOT
HETATM    1  C   UNL     1      30.583  71.021  28.635  1.00  0.00     0.186 C 
HETATM    2  C   UNL     1      29.275  71.031  29.464  1.00  0.00     0.179 C 
HETATM    3  C   UNL     1      30.264  71.209  27.138  1.00  0.00     0.187 C 
HETATM    4  C   UNL     1      29.205  70.161  26.724  1.00  0.00     0.303 C 
HETATM    5  C   UNL     1      27.893  70.371  27.561  1.00  0.00     0.296 C 
HETATM    6  O   UNL     1      28.095  71.264  28.662  1.00  0.00    -0.349 OA
ENDROOT
BRANCH   1   7
HETATM    7  O   UNL     1      31.459  72.069  29.084  1.00  0.00    -0.348 OA
BRANCH   7   8
HETATM    8  C   UNL     1      32.853  71.740  29.128  1.00  0.00     0.286 C 
HETATM    9  O   UNL     1      33.071  70.719  28.146  1.00  0.00    -0.349 OA
HETATM   10  C   UNL     1      34.436  70.273  28.020  1.00  0.00     0.180 C 
HETATM   11  C   UNL     1      35.075  69.858  29.364  1.00  0.00     0.186 C 
HETATM   12  C   UNL     1      34.030  69.910  30.492  1.00  0.00     0.177 C 
HETATM   13  C   UNL     1      33.289  71.255  30.545  1.00  0.00     0.171 C 
BRANCH  10  14
HETATM   14  C   UNL     1      35.281  71.324  27.284  1.00  0.00     0.198 C 
BRANCH  14  15
HETATM   15  O   UNL     1      36.645  70.923  27.206  1.00  0.00    -0.398 OA
HETATM   16  H   UNL     1      36.699  69.983  27.465  1.00  0.00     0.209 HD
ENDBRANCH  14  15
ENDBRANCH  10  14
BRANCH  11  17
HETATM   17  O   UNL     1      35.530  68.502  29.237  1.00  0.00    -0.348 OA
BRANCH  17  18
HETATM   18  C   UNL     1      36.923  68.258  29.456  1.00  0.00     0.286 C 
HETATM   19  O   UNL     1      37.474  67.876  28.201  1.00  0.00    -0.352 OA
HETATM   20  C   UNL     1      38.895  67.645  28.209  1.00  0.00     0.150 C 
HETATM   21  C   UNL     1      39.430  67.101  29.537  1.00  0.00     0.068 C 
HETATM   22  C   UNL     1      38.370  66.283  30.253  1.00  0.00     0.148 C 
HETATM   23  C   UNL     1      37.132  67.159  30.542  1.00  0.00     0.168 C 
BRANCH  20  24
HETATM   24  C   UNL     1      39.612  68.938  27.798  1.00  0.00     0.196 C 
BRANCH  24  25
HETATM   25  O   UNL     1      39.170  70.024  28.607  1.00  0.00    -0.398 OA
HETATM   26  H   UNL     1      39.126  69.684  29.523  1.00  0.00     0.209 HD
ENDBRANCH  24  25
ENDBRANCH  20  24
BRANCH  22  27
HETATM   27  O   UNL     1      38.040  65.158  29.433  1.00  0.00    -0.393 OA
HETATM   28  H   UNL     1      37.103  64.955  29.619  1.00  0.00     0.210 HD
ENDBRANCH  22  27
BRANCH  23  29
HETATM   29  N   UNL     1      35.935  66.343  30.785  1.00  0.00    -0.346 N 
HETATM   30  C   UNL     1      35.425  66.243  32.056  1.00  0.00     0.241 C 
HETATM   31  O   UNL     1      36.048  66.569  33.058  1.00  0.00    -0.269 OA
HETATM   32  H   UNL     1      35.342  66.166  29.976  1.00  0.00     0.163 HD
BRANCH  30  33
HETATM   33  C   UNL     1      34.007  65.833  32.089  1.00  0.00     0.080 C 
HETATM   34  C   UNL     1      33.146  66.597  32.775  1.00  0.00     0.086 C 
BRANCH  34  35
HETATM   35  C   UNL     1      31.713  66.310  32.700  1.00  0.00     0.165 C 
HETATM   36  O   UNL     1      31.032  65.752  33.537  1.00  0.00    -0.647 OA
BRANCH  35  37
HETATM   37  O   UNL     1      31.219  66.726  31.524  1.00  0.00    -0.773 OA
HETATM   38  H   UNL     1      30.392  66.212  31.412  1.00  0.00     0.167 HD
ENDBRANCH  35  37
ENDBRANCH  34  35
ENDBRANCH  30  33
ENDBRANCH  23  29
ENDBRANCH  17  18
ENDBRANCH  11  17
BRANCH  12  39
HETATM   39  O   UNL     1      33.096  68.818  30.385  1.00  0.00    -0.391 OA
HETATM   40  H   UNL     1      32.198  69.201  30.334  1.00  0.00     0.210 HD
ENDBRANCH  12  39
BRANCH  13  41
HETATM   41  N   UNL     1      32.194  71.163  31.510  1.00  0.00    -0.346 N 
HETATM   42  C   UNL     1      31.871  72.193  32.347  1.00  0.00     0.241 C 
HETATM   43  O   UNL     1      32.539  73.214  32.453  1.00  0.00    -0.269 OA
HETATM   44  H   UNL     1      31.553  70.386  31.393  1.00  0.00     0.163 HD
BRANCH  42  45
HETATM   45  C   UNL     1      30.624  71.955  33.102  1.00  0.00     0.080 C 
HETATM   46  C   UNL     1      29.531  72.667  32.802  1.00  0.00     0.086 C 
BRANCH  46  47
HETATM   47  C   UNL     1      28.288  72.392  33.523  1.00  0.00     0.165 C 
HETATM   48  O   UNL     1      28.054  72.605  34.697  1.00  0.00    -0.647 OA
BRANCH  47  49
HETATM   49  O   UNL     1      27.375  71.860  32.696  1.00  0.00    -0.773 OA
HETATM   50  H   UNL     1      27.545  72.304  31.840  1.00  0.00     0.167 HD
ENDBRANCH  47  49
ENDBRANCH  46  47
ENDBRANCH  42  45
ENDBRANCH  13  41
ENDBRANCH   7   8
ENDBRANCH   1   7
BRANCH   2  51
HETATM   51  C   UNL     1      29.110  69.736  30.275  1.00  0.00     0.198 C 
BRANCH  51  52
HETATM   52  O   UNL     1      30.282  68.931  30.189  1.00  0.00    -0.398 OA
HETATM   53  H   UNL     1      30.951  69.424  29.676  1.00  0.00     0.209 HD
ENDBRANCH  51  52
ENDBRANCH   2  51
BRANCH   3  54
HETATM   54  O   UNL     1      29.812  72.539  26.841  1.00  0.00    -0.391 OA
HETATM   55  H   UNL     1      30.173  72.790  25.968  1.00  0.00     0.210 HD
ENDBRANCH   3  54
BRANCH   4  56
HETATM   56  N   UNL     1      29.042  70.147  25.260  1.00  0.00     0.090 N 
HETATM   57  H   UNL     1      29.911  70.358  24.784  1.00  0.00     0.313 HD
HETATM   58  H   UNL     1      28.765  69.199  24.985  1.00  0.00     0.313 HD
ENDBRANCH   4  56
BRANCH   5  59
HETATM   59  O   UNL     1      26.851  70.942  26.747  1.00  0.00    -0.348 OA
BRANCH  59  60
HETATM   60  C   UNL     1      25.538  70.393  26.970  1.00  0.00     0.186 C 
HETATM   61  C   UNL     1      24.422  71.240  26.303  1.00  0.00     0.179 C 
HETATM   62  O   UNL     1      23.532  70.502  25.439  1.00  0.00    -0.349 OA
HETATM   63  C   UNL     1      23.026  69.251  25.919  1.00  0.00     0.281 C 
HETATM   64  C   UNL     1      24.105  68.395  26.643  1.00  0.00     0.149 C 
HETATM   65  C   UNL     1      25.525  68.951  26.430  1.00  0.00     0.172 C 
BRANCH  61  66
HETATM   66  C   UNL     1      23.575  71.981  27.349  1.00  0.00     0.198 C 
BRANCH  66  67
HETATM   67  O   UNL     1      24.272  73.114  27.854  1.00  0.00    -0.398 OA
HETATM   68  H   UNL     1      23.736  73.498  28.575  1.00  0.00     0.209 HD
ENDBRANCH  66  67
ENDBRANCH  61  66
BRANCH  63  69
HETATM   69  O   UNL     1      22.441  68.556  24.819  1.00  0.00    -0.349 OA
BRANCH  69  70
HETATM   70  C   UNL     1      21.855  69.378  23.799  1.00  0.00     0.186 C 
HETATM   71  C   UNL     1      22.067  68.787  22.383  1.00  0.00     0.176 C 
HETATM   72  O   UNL     1      20.915  68.993  21.520  1.00  0.00    -0.379 OA
HETATM   73  C   UNL     1      20.318  70.289  21.658  1.00  0.00     0.196 C 
HETATM   74  C   UNL     1      19.709  70.480  23.059  1.00  0.00     0.139 C 
HETATM   75  C   UNL     1      20.335  69.494  24.063  1.00  0.00     0.174 C 
BRANCH  71  76
HETATM   76  C   UNL     1      23.305  69.340  21.664  1.00  0.00     0.198 C 
BRANCH  76  77
HETATM   77  O   UNL     1      24.344  69.592  22.609  1.00  0.00    -0.398 OA
HETATM   78  H   UNL     1      23.987  69.349  23.486  1.00  0.00     0.209 HD
ENDBRANCH  76  77
ENDBRANCH  71  76
BRANCH  74  79
HETATM   79  N   UNL     1      18.253  70.333  23.024  1.00  0.00    -0.348 N 
HETATM   80  C   UNL     1      17.426  71.024  23.866  1.00  0.00     0.241 C 
HETATM   81  O   UNL     1      17.815  71.802  24.728  1.00  0.00    -0.269 OA
HETATM   82  H   UNL     1      17.887  69.578  22.455  1.00  0.00     0.163 HD
BRANCH  80  83
HETATM   83  C   UNL     1      15.992  70.772  23.610  1.00  0.00     0.080 C 
HETATM   84  C   UNL     1      15.615  70.320  22.406  1.00  0.00     0.086 C 
BRANCH  84  85
HETATM   85  C   UNL     1      14.212  69.966  22.185  1.00  0.00     0.165 C 
HETATM   86  O   UNL     1      13.620  69.001  22.628  1.00  0.00    -0.647 OA
BRANCH  85  87
HETATM   87  O   UNL     1      13.625  70.865  21.380  1.00  0.00    -0.773 OA
HETATM   88  H   UNL     1      14.338  71.141  20.766  1.00  0.00     0.167 HD
ENDBRANCH  85  87
ENDBRANCH  84  85
ENDBRANCH  80  83
ENDBRANCH  74  79
BRANCH  75  89
HETATM   89  O   UNL     1      19.680  68.215  23.961  1.00  0.00    -0.391 OA
HETATM   90  H   UNL     1      20.357  67.519  24.039  1.00  0.00     0.210 HD
ENDBRANCH  75  89
ENDBRANCH  69  70
ENDBRANCH  63  69
BRANCH  64  91
HETATM   91  N   UNL     1      23.980  66.927  26.604  1.00  0.00    -0.247 NA
HETATM   92  C   UNL     1      24.506  66.130  27.585  1.00  0.00     0.221 C 
HETATM   93  O   UNL     1      23.741  65.571  28.368  1.00  0.00    -0.275 OA
HETATM   94  H   UNL     1      22.995  66.686  26.606  1.00  0.00     0.131 HD
BRANCH  92  95
HETATM   95  C   UNL     1      25.916  65.744  27.443  1.00  0.00     0.074 C 
HETATM   96  C   UNL     1      26.728  66.205  28.407  1.00  0.00     0.086 C 
BRANCH  96  97
HETATM   97  C   UNL     1      28.139  65.832  28.473  1.00  0.00     0.165 C 
HETATM   98  O   UNL     1      28.790  65.206  27.658  1.00  0.00    -0.647 OA
BRANCH  97  99
HETATM   99  O   UNL     1      28.668  66.272  29.626  1.00  0.00    -0.773 OA
HETATM  100  H   UNL     1      29.309  65.574  29.874  1.00  0.00     0.167 HD
ENDBRANCH  97  99
ENDBRANCH  96  97
ENDBRANCH  92  95
ENDBRANCH  64  91
BRANCH  65 101
HETATM  101  O   UNL     1      25.914  68.904  25.059  1.00  0.00    -0.391 OA
HETATM  102  H   UNL     1      25.273  69.449  24.562  1.00  0.00     0.210 HD
ENDBRANCH  65 101
ENDBRANCH  59  60
ENDBRANCH   5  59
TORSDOF 40
ENDMDL
MODEL 7
REMARK VINA RESULT:      -7.3      2.951     14.237
REMARK WARNING: 32 MAX_TORS EXCEEDED!!!
REMARK  40 active torsions:
REMARK  status: ('A' for Active; 'I' for Inactive)
REMARK    1  A    between atoms: C_1  and  O_44 
REMARK    2  A    between atoms: C_2  and  C_6 
REMARK    3  A    between atoms: C_3  and  O_10 
REMARK    4  A    between atoms: C_4  and  N_12 
REMARK    5  A    between atoms: C_5  and  O_14 
REMARK    6  A    between atoms: C_6  and  O_7 
REMARK    7  A    between atoms: O_14  and  C_27 
REMARK    8  A    between atoms: O_16  and  C_21 
REMARK    9  A    between atoms: C_18  and  C_33 
REMARK   10  A    between atoms: O_20  and  C_33 
REMARK   11  A    between atoms: O_22  and  C_30 
REMARK   12  A    between atoms: O_22  and  C_70 
REMARK   13  A    between atoms: O_23  and  C_24 
REMARK   14  A    between atoms: C_24  and  C_28 
REMARK       I    between atoms: N_29  and  C_32 
REMARK   15  A    between atoms: N_29  and  C_35 
REMARK   16  A    between atoms: C_31  and  C_32 
REMARK   17  A    between atoms: O_38  and  C_43 
REMARK   18  A    between atoms: C_40  and  C_55 
REMARK   19  A    between atoms: O_42  and  C_55 
REMARK   20  A    between atoms: O_44  and  C_52 
REMARK   21  A    between atoms: O_45  and  C_46 
REMARK   22  A    between atoms: C_46  and  C_50 
REMARK   23  A    between atoms: C_49  and  O_87 
REMARK       I    between atoms: N_51  and  C_54 
REMARK   24  A    between atoms: N_51  and  C_57 
REMARK   25  A    between atoms: C_53  and  C_54 
REMARK   26  A    between atoms: O_60  and  C_65 
REMARK   27  A    between atoms: C_62  and  C_76 
REMARK   28  A    between atoms: O_64  and  C_76 
REMARK   29  A    between atoms: O_66  and  C_67 
REMARK   30  A    between atoms: C_67  and  C_71 
REMARK       I    between atoms: N_72  and  C_75 
REMARK   31  A    between atoms: N_72  and  C_78 
REMARK   32  A    between atoms: C_74  and  C_75 
REMARK   33  A    between atoms: O_81  and  C_86 
REMARK   34  A    between atoms: C_83  and  C_98 
REMARK   35  A    between atoms: O_85  and  C_98 
REMARK   36  A    between atoms: O_87  and  C_95 
REMARK   37  A    between atoms: O_88  and  C_89 
REMARK   38  A    between atoms: C_89  and  C_93 
REMARK       I    between atoms: N_94  and  C_97 
REMARK   39  A    between atoms: N_94  and  C_100 
REMARK   40  A    between atoms: C_96  and  C_97 
ROOT
HETATM    1  C   UNL     1      24.426  71.032  26.847  1.00  0.00     0.186 C 
HETATM    2  C   UNL     1      22.937  70.660  27.048  1.00  0.00     0.179 C 
HETATM    3  C   UNL     1      24.778  71.022  25.345  1.00  0.00     0.187 C 
HETATM    4  C   UNL     1      24.342  69.665  24.745  1.00  0.00     0.303 C 
HETATM    5  C   UNL     1      22.793  69.481  24.913  1.00  0.00     0.296 C 
HETATM    6  O   UNL     1      22.229  70.451  25.805  1.00  0.00    -0.349 OA
ENDROOT
BRANCH   1   7
HETATM    7  O   UNL     1      24.689  72.331  27.403  1.00  0.00    -0.348 OA
BRANCH   7   8
HETATM    8  C   UNL     1      25.947  72.478  28.075  1.00  0.00     0.286 C 
HETATM    9  O   UNL     1      26.851  71.541  27.478  1.00  0.00    -0.349 OA
HETATM   10  C   UNL     1      28.191  71.559  28.007  1.00  0.00     0.180 C 
HETATM   11  C   UNL     1      28.246  71.440  29.547  1.00  0.00     0.186 C 
HETATM   12  C   UNL     1      26.837  71.201  30.116  1.00  0.00     0.177 C 
HETATM   13  C   UNL     1      25.816  72.230  29.609  1.00  0.00     0.171 C 
BRANCH  10  14
HETATM   14  C   UNL     1      28.953  72.793  27.501  1.00  0.00     0.198 C 
BRANCH  14  15
HETATM   15  O   UNL     1      30.285  72.456  27.126  1.00  0.00    -0.398 OA
HETATM   16  H   UNL     1      30.893  72.854  27.780  1.00  0.00     0.209 HD
ENDBRANCH  14  15
ENDBRANCH  10  14
BRANCH  11  17
HETATM   17  O   UNL     1      29.061  70.303  29.873  1.00  0.00    -0.348 OA
BRANCH  17  18
HETATM   18  C   UNL     1      30.385  70.564  30.348  1.00  0.00     0.286 C 
HETATM   19  O   UNL     1      30.519  71.979  30.432  1.00  0.00    -0.352 OA
HETATM   20  C   UNL     1      31.779  72.437  30.955  1.00  0.00     0.150 C 
HETATM   21  C   UNL     1      32.962  71.522  30.623  1.00  0.00     0.068 C 
HETATM   22  C   UNL     1      32.730  70.795  29.311  1.00  0.00     0.148 C 
HETATM   23  C   UNL     1      31.452  69.934  29.402  1.00  0.00     0.168 C 
BRANCH  20  24
HETATM   24  C   UNL     1      31.640  72.655  32.468  1.00  0.00     0.196 C 
BRANCH  24  25
HETATM   25  O   UNL     1      32.650  73.548  32.931  1.00  0.00    -0.398 OA
HETATM   26  H   UNL     1      32.183  74.295  33.355  1.00  0.00     0.209 HD
ENDBRANCH  24  25
ENDBRANCH  20  24
BRANCH  22  27
HETATM   27  O   UNL     1      32.638  71.768  28.266  1.00  0.00    -0.393 OA
HETATM   28  H   UNL     1      31.721  71.720  27.934  1.00  0.00     0.210 HD
ENDBRANCH  22  27
BRANCH  23  29
HETATM   29  N   UNL     1      30.927  69.601  28.071  1.00  0.00    -0.346 N 
HETATM   30  C   UNL     1      30.266  68.413  27.876  1.00  0.00     0.241 C 
HETATM   31  O   UNL     1      30.311  67.481  28.668  1.00  0.00    -0.269 OA
HETATM   32  H   UNL     1      30.771  70.387  27.441  1.00  0.00     0.163 HD
BRANCH  30  33
HETATM   33  C   UNL     1      29.389  68.416  26.689  1.00  0.00     0.080 C 
HETATM   34  C   UNL     1      28.661  67.319  26.440  1.00  0.00     0.086 C 
BRANCH  34  35
HETATM   35  C   UNL     1      27.668  67.344  25.366  1.00  0.00     0.165 C 
HETATM   36  O   UNL     1      27.360  68.293  24.673  1.00  0.00    -0.647 OA
BRANCH  35  37
HETATM   37  O   UNL     1      27.082  66.143  25.251  1.00  0.00    -0.773 OA
HETATM   38  H   UNL     1      26.150  66.347  25.026  1.00  0.00     0.167 HD
ENDBRANCH  35  37
ENDBRANCH  34  35
ENDBRANCH  30  33
ENDBRANCH  23  29
ENDBRANCH  17  18
ENDBRANCH  11  17
BRANCH  12  39
HETATM   39  O   UNL     1      26.388  69.859  29.842  1.00  0.00    -0.391 OA
HETATM   40  H   UNL     1      26.906  69.524  29.083  1.00  0.00     0.210 HD
ENDBRANCH  12  39
BRANCH  13  41
HETATM   41  N   UNL     1      24.476  71.831  30.039  1.00  0.00    -0.346 N 
HETATM   42  C   UNL     1      23.486  72.740  30.280  1.00  0.00     0.241 C 
HETATM   43  O   UNL     1      23.666  73.952  30.285  1.00  0.00    -0.269 OA
HETATM   44  H   UNL     1      24.249  70.846  29.952  1.00  0.00     0.163 HD
BRANCH  42  45
HETATM   45  C   UNL     1      22.171  72.113  30.521  1.00  0.00     0.080 C 
HETATM   46  C   UNL     1      22.106  70.977  31.226  1.00  0.00     0.086 C 
BRANCH  46  47
HETATM   47  C   UNL     1      20.796  70.388  31.498  1.00  0.00     0.165 C 
HETATM   48  O   UNL     1      19.907  70.850  32.189  1.00  0.00    -0.647 OA
BRANCH  47  49
HETATM   49  O   UNL     1      20.666  69.218  30.855  1.00  0.00    -0.773 OA
HETATM   50  H   UNL     1      20.259  68.626  31.520  1.00  0.00     0.167 HD
ENDBRANCH  47  49
ENDBRANCH  46  47
ENDBRANCH  42  45
ENDBRANCH  13  41
ENDBRANCH   7   8
ENDBRANCH   1   7
BRANCH   2  51
HETATM   51  C   UNL     1      22.780  69.428  27.954  1.00  0.00     0.198 C 
BRANCH  51  52
HETATM   52  O   UNL     1      23.972  69.187  28.694  1.00  0.00    -0.398 OA
HETATM   53  H   UNL     1      23.747  68.612  29.451  1.00  0.00     0.209 HD
ENDBRANCH  51  52
ENDBRANCH   2  51
BRANCH   3  54
HETATM   54  O   UNL     1      24.169  72.114  24.637  1.00  0.00    -0.391 OA
HETATM   55  H   UNL     1      23.205  71.956  24.616  1.00  0.00     0.210 HD
ENDBRANCH   3  54
BRANCH   4  56
HETATM   56  N   UNL     1      24.866  69.518  23.376  1.00  0.00     0.090 N 
HETATM   57  H   UNL     1      24.848  68.553  23.069  1.00  0.00     0.313 HD
HETATM   58  H   UNL     1      24.255  70.050  22.748  1.00  0.00     0.313 HD
ENDBRANCH   4  56
BRANCH   5  59
HETATM   59  O   UNL     1      22.118  69.635  23.650  1.00  0.00    -0.348 OA
BRANCH  59  60
HETATM   60  C   UNL     1      21.335  68.498  23.238  1.00  0.00     0.186 C 
HETATM   61  C   UNL     1      19.810  68.770  23.320  1.00  0.00     0.179 C 
HETATM   62  O   UNL     1      19.077  68.500  22.107  1.00  0.00    -0.349 OA
HETATM   63  C   UNL     1      19.355  67.273  21.421  1.00  0.00     0.281 C 
HETATM   64  C   UNL     1      20.874  66.939  21.365  1.00  0.00     0.149 C 
HETATM   65  C   UNL     1      21.747  68.131  21.800  1.00  0.00     0.172 C 
BRANCH  61  66
HETATM   66  C   UNL     1      19.157  67.978  24.465  1.00  0.00     0.198 C 
BRANCH  66  67
HETATM   67  O   UNL     1      19.810  68.244  25.700  1.00  0.00    -0.398 OA
HETATM   68  H   UNL     1      19.260  67.871  26.416  1.00  0.00     0.209 HD
ENDBRANCH  66  67
ENDBRANCH  61  66
BRANCH  63  69
HETATM   69  O   UNL     1      18.776  67.349  20.120  1.00  0.00    -0.349 OA
BRANCH  69  70
HETATM   70  C   UNL     1      17.649  66.493  19.886  1.00  0.00     0.186 C 
HETATM   71  C   UNL     1      16.714  67.050  18.783  1.00  0.00     0.176 C 
HETATM   72  O   UNL     1      16.157  65.998  17.948  1.00  0.00    -0.379 OA
HETATM   73  C   UNL     1      15.761  64.832  18.681  1.00  0.00     0.196 C 
HETATM   74  C   UNL     1      16.975  64.129  19.316  1.00  0.00     0.139 C 
HETATM   75  C   UNL     1      18.162  65.102  19.441  1.00  0.00     0.174 C 
BRANCH  71  76
HETATM   76  C   UNL     1      15.551  67.890  19.329  1.00  0.00     0.198 C 
BRANCH  76  77
HETATM   77  O   UNL     1      16.023  68.768  20.351  1.00  0.00    -0.398 OA
HETATM   78  H   UNL     1      16.048  68.244  21.176  1.00  0.00     0.209 HD
ENDBRANCH  76  77
ENDBRANCH  71  76
BRANCH  74  79
HETATM   79  N   UNL     1      17.355  62.941  18.548  1.00  0.00    -0.348 N 
HETATM   80  C   UNL     1      17.865  61.819  19.140  1.00  0.00     0.241 C 
HETATM   81  O   UNL     1      18.069  61.706  20.342  1.00  0.00    -0.269 OA
HETATM   82  H   UNL     1      17.374  63.040  17.539  1.00  0.00     0.163 HD
BRANCH  80  83
HETATM   83  C   UNL     1      18.116  60.719  18.184  1.00  0.00     0.080 C 
HETATM   84  C   UNL     1      18.636  59.569  18.634  1.00  0.00     0.086 C 
BRANCH  84  85
HETATM   85  C   UNL     1      18.783  58.444  17.711  1.00  0.00     0.165 C 
HETATM   86  O   UNL     1      17.923  57.959  17.001  1.00  0.00    -0.647 OA
BRANCH  85  87
HETATM   87  O   UNL     1      20.037  57.967  17.751  1.00  0.00    -0.773 OA
HETATM   88  H   UNL     1      20.221  57.694  16.828  1.00  0.00     0.167 HD
ENDBRANCH  85  87
ENDBRANCH  84  85
ENDBRANCH  80  83
ENDBRANCH  74  79
BRANCH  75  89
HETATM   89  O   UNL     1      18.868  65.173  18.188  1.00  0.00    -0.391 OA
HETATM   90  H   UNL     1      18.209  65.207  17.469  1.00  0.00     0.210 HD
ENDBRANCH  75  89
ENDBRANCH  69  70
ENDBRANCH  63  69
BRANCH  64  91
HETATM   91  N   UNL     1      21.380  66.160  20.221  1.00  0.00    -0.247 NA
HETATM   92  C   UNL     1      22.202  66.713  19.276  1.00  0.00     0.221 C 
HETATM   93  O   UNL     1      23.384  66.379  19.251  1.00  0.00    -0.275 OA
HETATM   94  H   UNL     1      21.919  65.377  20.575  1.00  0.00     0.131 HD
BRANCH  92  95
HETATM   95  C   UNL     1      21.554  67.419  18.162  1.00  0.00     0.074 C 
HETATM   96  C   UNL     1      21.357  66.676  17.062  1.00  0.00     0.086 C 
BRANCH  96  97
HETATM   97  C   UNL     1      20.636  67.193  15.901  1.00  0.00     0.165 C 
HETATM   98  O   UNL     1      20.848  66.970  14.724  1.00  0.00    -0.647 OA
BRANCH  97  99
HETATM   99  O   UNL     1      19.658  68.018  16.308  1.00  0.00    -0.773 OA
HETATM  100  H   UNL     1      19.371  68.468  15.487  1.00  0.00     0.167 HD
ENDBRANCH  97  99
ENDBRANCH  96  97
ENDBRANCH  92  95
ENDBRANCH  64  91
BRANCH  65 101
HETATM  101  O   UNL     1      21.608  69.241  20.918  1.00  0.00    -0.391 OA
HETATM  102  H   UNL     1      20.652  69.439  20.855  1.00  0.00     0.210 HD
ENDBRANCH  65 101
ENDBRANCH  59  60
ENDBRANCH   5  59
TORSDOF 40
ENDMDL
MODEL 8
REMARK VINA RESULT:      -7.3      3.035     15.123
REMARK WARNING: 32 MAX_TORS EXCEEDED!!!
REMARK  40 active torsions:
REMARK  status: ('A' for Active; 'I' for Inactive)
REMARK    1  A    between atoms: C_1  and  O_44 
REMARK    2  A    between atoms: C_2  and  C_6 
REMARK    3  A    between atoms: C_3  and  O_10 
REMARK    4  A    between atoms: C_4  and  N_12 
REMARK    5  A    between atoms: C_5  and  O_14 
REMARK    6  A    between atoms: C_6  and  O_7 
REMARK    7  A    between atoms: O_14  and  C_27 
REMARK    8  A    between atoms: O_16  and  C_21 
REMARK    9  A    between atoms: C_18  and  C_33 
REMARK   10  A    between atoms: O_20  and  C_33 
REMARK   11  A    between atoms: O_22  and  C_30 
REMARK   12  A    between atoms: O_22  and  C_70 
REMARK   13  A    between atoms: O_23  and  C_24 
REMARK   14  A    between atoms: C_24  and  C_28 
REMARK       I    between atoms: N_29  and  C_32 
REMARK   15  A    between atoms: N_29  and  C_35 
REMARK   16  A    between atoms: C_31  and  C_32 
REMARK   17  A    between atoms: O_38  and  C_43 
REMARK   18  A    between atoms: C_40  and  C_55 
REMARK   19  A    between atoms: O_42  and  C_55 
REMARK   20  A    between atoms: O_44  and  C_52 
REMARK   21  A    between atoms: O_45  and  C_46 
REMARK   22  A    between atoms: C_46  and  C_50 
REMARK   23  A    between atoms: C_49  and  O_87 
REMARK       I    between atoms: N_51  and  C_54 
REMARK   24  A    between atoms: N_51  and  C_57 
REMARK   25  A    between atoms: C_53  and  C_54 
REMARK   26  A    between atoms: O_60  and  C_65 
REMARK   27  A    between atoms: C_62  and  C_76 
REMARK   28  A    between atoms: O_64  and  C_76 
REMARK   29  A    between atoms: O_66  and  C_67 
REMARK   30  A    between atoms: C_67  and  C_71 
REMARK       I    between atoms: N_72  and  C_75 
REMARK   31  A    between atoms: N_72  and  C_78 
REMARK   32  A    between atoms: C_74  and  C_75 
REMARK   33  A    between atoms: O_81  and  C_86 
REMARK   34  A    between atoms: C_83  and  C_98 
REMARK   35  A    between atoms: O_85  and  C_98 
REMARK   36  A    between atoms: O_87  and  C_95 
REMARK   37  A    between atoms: O_88  and  C_89 
REMARK   38  A    between atoms: C_89  and  C_93 
REMARK       I    between atoms: N_94  and  C_97 
REMARK   39  A    between atoms: N_94  and  C_100 
REMARK   40  A    between atoms: C_96  and  C_97 
ROOT
HETATM    1  C   UNL     1      24.867  69.637  25.672  1.00  0.00     0.186 C 
HETATM    2  C   UNL     1      23.662  68.837  26.225  1.00  0.00     0.179 C 
HETATM    3  C   UNL     1      24.447  70.434  24.420  1.00  0.00     0.187 C 
HETATM    4  C   UNL     1      23.775  69.465  23.421  1.00  0.00     0.303 C 
HETATM    5  C   UNL     1      22.502  68.823  24.076  1.00  0.00     0.296 C 
HETATM    6  O   UNL     1      22.441  69.066  25.486  1.00  0.00    -0.349 OA
ENDROOT
BRANCH   1   7
HETATM    7  O   UNL     1      25.368  70.533  26.679  1.00  0.00    -0.348 OA
BRANCH   7   8
HETATM    8  C   UNL     1      26.794  70.600  26.801  1.00  0.00     0.286 C 
HETATM    9  O   UNL     1      27.262  69.256  26.965  1.00  0.00    -0.349 OA
HETATM   10  C   UNL     1      28.692  69.114  27.077  1.00  0.00     0.180 C 
HETATM   11  C   UNL     1      29.319  70.028  28.154  1.00  0.00     0.186 C 
HETATM   12  C   UNL     1      28.219  70.773  28.929  1.00  0.00     0.177 C 
HETATM   13  C   UNL     1      27.232  71.495  28.000  1.00  0.00     0.171 C 
BRANCH  10  14
HETATM   14  C   UNL     1      29.361  69.302  25.707  1.00  0.00     0.198 C 
BRANCH  14  15
HETATM   15  O   UNL     1      30.451  70.215  25.788  1.00  0.00    -0.398 OA
HETATM   16  H   UNL     1      31.079  70.000  25.071  1.00  0.00     0.209 HD
ENDBRANCH  14  15
ENDBRANCH  10  14
BRANCH  11  17
HETATM   17  O   UNL     1      30.033  69.194  29.079  1.00  0.00    -0.348 OA
BRANCH  17  18
HETATM   18  C   UNL     1      31.402  69.524  29.333  1.00  0.00     0.286 C 
HETATM   19  O   UNL     1      32.106  69.322  28.113  1.00  0.00    -0.352 OA
HETATM   20  C   UNL     1      33.503  69.664  28.155  1.00  0.00     0.150 C 
HETATM   21  C   UNL     1      34.157  69.443  29.523  1.00  0.00     0.068 C 
HETATM   22  C   UNL     1      33.471  68.315  30.273  1.00  0.00     0.148 C 
HETATM   23  C   UNL     1      31.981  68.653  30.489  1.00  0.00     0.168 C 
BRANCH  20  24
HETATM   24  C   UNL     1      33.676  71.111  27.674  1.00  0.00     0.196 C 
BRANCH  24  25
HETATM   25  O   UNL     1      32.674  71.434  26.714  1.00  0.00    -0.398 OA
HETATM   26  H   UNL     1      32.732  72.399  26.570  1.00  0.00     0.209 HD
ENDBRANCH  24  25
ENDBRANCH  20  24
BRANCH  22  27
HETATM   27  O   UNL     1      33.635  67.109  29.522  1.00  0.00    -0.393 OA
HETATM   28  H   UNL     1      32.756  66.900  29.153  1.00  0.00     0.210 HD
ENDBRANCH  22  27
BRANCH  23  29
HETATM   29  N   UNL     1      31.187  67.448  30.766  1.00  0.00    -0.346 N 
HETATM   30  C   UNL     1      30.342  67.422  31.849  1.00  0.00     0.241 C 
HETATM   31  O   UNL     1      30.396  68.235  32.763  1.00  0.00    -0.269 OA
HETATM   32  H   UNL     1      31.033  66.822  29.977  1.00  0.00     0.163 HD
BRANCH  30  33
HETATM   33  C   UNL     1      29.277  66.406  31.739  1.00  0.00     0.080 C 
HETATM   34  C   UNL     1      28.687  66.237  30.549  1.00  0.00     0.086 C 
BRANCH  34  35
HETATM   35  C   UNL     1      27.741  65.135  30.365  1.00  0.00     0.165 C 
HETATM   36  O   UNL     1      26.541  65.219  30.195  1.00  0.00    -0.647 OA
BRANCH  35  37
HETATM   37  O   UNL     1      28.381  63.959  30.444  1.00  0.00    -0.773 OA
HETATM   38  H   UNL     1      27.858  63.440  31.091  1.00  0.00     0.167 HD
ENDBRANCH  35  37
ENDBRANCH  34  35
ENDBRANCH  30  33
ENDBRANCH  23  29
ENDBRANCH  17  18
ENDBRANCH  11  17
BRANCH  12  39
HETATM   39  O   UNL     1      27.521  69.885  29.823  1.00  0.00    -0.391 OA
HETATM   40  H   UNL     1      28.051  69.066  29.899  1.00  0.00     0.210 HD
ENDBRANCH  12  39
BRANCH  13  41
HETATM   41  N   UNL     1      26.120  72.019  28.793  1.00  0.00    -0.346 N 
HETATM   42  C   UNL     1      25.938  73.357  29.001  1.00  0.00     0.241 C 
HETATM   43  O   UNL     1      26.747  74.211  28.658  1.00  0.00    -0.269 OA
HETATM   44  H   UNL     1      25.374  71.367  29.010  1.00  0.00     0.163 HD
BRANCH  42  45
HETATM   45  C   UNL     1      24.658  73.670  29.667  1.00  0.00     0.080 C 
HETATM   46  C   UNL     1      23.894  72.669  30.121  1.00  0.00     0.086 C 
BRANCH  46  47
HETATM   47  C   UNL     1      22.651  72.990  30.821  1.00  0.00     0.165 C 
HETATM   48  O   UNL     1      21.794  72.213  31.199  1.00  0.00    -0.647 OA
BRANCH  47  49
HETATM   49  O   UNL     1      22.556  74.313  31.025  1.00  0.00    -0.773 OA
HETATM   50  H   UNL     1      23.478  74.632  30.941  1.00  0.00     0.167 HD
ENDBRANCH  47  49
ENDBRANCH  46  47
ENDBRANCH  42  45
ENDBRANCH  13  41
ENDBRANCH   7   8
ENDBRANCH   1   7
BRANCH   2  51
HETATM   51  C   UNL     1      23.964  67.331  26.286  1.00  0.00     0.198 C 
BRANCH  51  52
HETATM   52  O   UNL     1      25.312  67.068  25.909  1.00  0.00    -0.398 OA
HETATM   53  H   UNL     1      25.505  66.132  26.112  1.00  0.00     0.209 HD
ENDBRANCH  51  52
ENDBRANCH   2  51
BRANCH   3  54
HETATM   54  O   UNL     1      23.572  71.527  24.741  1.00  0.00    -0.391 OA
HETATM   55  H   UNL     1      23.785  71.825  25.647  1.00  0.00     0.210 HD
ENDBRANCH   3  54
BRANCH   4  56
HETATM   56  N   UNL     1      23.570  70.129  22.122  1.00  0.00     0.090 N 
HETATM   57  H   UNL     1      22.858  69.664  21.571  1.00  0.00     0.313 HD
HETATM   58  H   UNL     1      23.239  71.082  22.307  1.00  0.00     0.313 HD
ENDBRANCH   4  56
BRANCH   5  59
HETATM   59  O   UNL     1      21.299  69.375  23.506  1.00  0.00    -0.348 OA
BRANCH  59  60
HETATM   60  C   UNL     1      20.356  68.400  23.020  1.00  0.00     0.186 C 
HETATM   61  C   UNL     1      18.943  69.003  22.800  1.00  0.00     0.179 C 
HETATM   62  O   UNL     1      18.384  68.782  21.488  1.00  0.00    -0.349 OA
HETATM   63  C   UNL     1      18.484  67.464  20.937  1.00  0.00     0.281 C 
HETATM   64  C   UNL     1      19.872  66.804  21.185  1.00  0.00     0.149 C 
HETATM   65  C   UNL     1      20.909  67.814  21.708  1.00  0.00     0.172 C 
BRANCH  61  66
HETATM   66  C   UNL     1      17.941  68.487  23.844  1.00  0.00     0.198 C 
BRANCH  66  67
HETATM   67  O   UNL     1      16.673  69.111  23.679  1.00  0.00    -0.398 OA
HETATM   68  H   UNL     1      16.199  69.056  24.532  1.00  0.00     0.209 HD
ENDBRANCH  66  67
ENDBRANCH  61  66
BRANCH  63  69
HETATM   69  O   UNL     1      18.167  67.537  19.548  1.00  0.00    -0.349 OA
BRANCH  69  70
HETATM   70  C   UNL     1      16.943  66.902  19.151  1.00  0.00     0.186 C 
HETATM   71  C   UNL     1      15.775  67.912  19.033  1.00  0.00     0.176 C 
HETATM   72  O   UNL     1      14.886  67.603  17.925  1.00  0.00    -0.379 OA
HETATM   73  C   UNL     1      14.621  66.202  17.775  1.00  0.00     0.196 C 
HETATM   74  C   UNL     1      15.895  65.427  17.392  1.00  0.00     0.139 C 
HETATM   75  C   UNL     1      17.153  66.228  17.774  1.00  0.00     0.174 C 
BRANCH  71  76
HETATM   76  C   UNL     1      14.926  68.024  20.307  1.00  0.00     0.198 C 
BRANCH  76  77
HETATM   77  O   UNL     1      15.341  69.156  21.070  1.00  0.00    -0.398 OA
HETATM   78  H   UNL     1      15.720  68.806  21.901  1.00  0.00     0.209 HD
ENDBRANCH  76  77
ENDBRANCH  71  76
BRANCH  74  79
HETATM   79  N   UNL     1      15.901  65.098  15.965  1.00  0.00    -0.348 N 
HETATM   80  C   UNL     1      16.396  63.915  15.488  1.00  0.00     0.241 C 
HETATM   81  O   UNL     1      16.891  63.043  16.190  1.00  0.00    -0.269 OA
HETATM   82  H   UNL     1      15.666  65.848  15.326  1.00  0.00     0.163 HD
BRANCH  80  83
HETATM   83  C   UNL     1      16.240  63.767  14.025  1.00  0.00     0.080 C 
HETATM   84  C   UNL     1      17.331  63.784  13.248  1.00  0.00     0.086 C 
BRANCH  84  85
HETATM   85  C   UNL     1      17.189  63.528  11.814  1.00  0.00     0.165 C 
HETATM   86  O   UNL     1      16.327  63.960  11.074  1.00  0.00    -0.647 OA
BRANCH  85  87
HETATM   87  O   UNL     1      18.158  62.704  11.389  1.00  0.00    -0.773 OA
HETATM   88  H   UNL     1      18.832  63.301  11.004  1.00  0.00     0.167 HD
ENDBRANCH  85  87
ENDBRANCH  84  85
ENDBRANCH  80  83
ENDBRANCH  74  79
BRANCH  75  89
HETATM   89  O   UNL     1      17.443  67.197  16.748  1.00  0.00    -0.391 OA
HETATM   90  H   UNL     1      18.399  67.161  16.557  1.00  0.00     0.210 HD
ENDBRANCH  75  89
ENDBRANCH  69  70
ENDBRANCH  63  69
BRANCH  64  91
HETATM   91  N   UNL     1      20.370  65.826  20.201  1.00  0.00    -0.247 NA
HETATM   92  C   UNL     1      21.433  66.100  19.383  1.00  0.00     0.221 C 
HETATM   93  O   UNL     1      22.501  65.531  19.590  1.00  0.00    -0.275 OA
HETATM   94  H   UNL     1      20.661  64.989  20.695  1.00  0.00     0.131 HD
BRANCH  92  95
HETATM   95  C   UNL     1      21.141  66.808  18.129  1.00  0.00     0.074 C 
HETATM   96  C   UNL     1      20.866  66.012  17.084  1.00  0.00     0.086 C 
BRANCH  96  97
HETATM   97  C   UNL     1      20.456  66.553  15.789  1.00  0.00     0.165 C 
HETATM   98  O   UNL     1      20.828  67.579  15.251  1.00  0.00    -0.647 OA
BRANCH  97  99
HETATM   99  O   UNL     1      19.543  65.742  15.231  1.00  0.00    -0.773 OA
HETATM  100  H   UNL     1      19.613  65.931  14.273  1.00  0.00     0.167 HD
ENDBRANCH  97  99
ENDBRANCH  96  97
ENDBRANCH  92  95
ENDBRANCH  64  91
BRANCH  65 101
HETATM  101  O   UNL     1      21.182  68.837  20.753  1.00  0.00    -0.391 OA
HETATM  102  H   UNL     1      21.477  68.393  19.934  1.00  0.00     0.210 HD
ENDBRANCH  65 101
ENDBRANCH  59  60
ENDBRANCH   5  59
TORSDOF 40
ENDMDL
MODEL 9
REMARK VINA RESULT:      -7.2      3.195     14.493
REMARK WARNING: 32 MAX_TORS EXCEEDED!!!
REMARK  40 active torsions:
REMARK  status: ('A' for Active; 'I' for Inactive)
REMARK    1  A    between atoms: C_1  and  O_44 
REMARK    2  A    between atoms: C_2  and  C_6 
REMARK    3  A    between atoms: C_3  and  O_10 
REMARK    4  A    between atoms: C_4  and  N_12 
REMARK    5  A    between atoms: C_5  and  O_14 
REMARK    6  A    between atoms: C_6  and  O_7 
REMARK    7  A    between atoms: O_14  and  C_27 
REMARK    8  A    between atoms: O_16  and  C_21 
REMARK    9  A    between atoms: C_18  and  C_33 
REMARK   10  A    between atoms: O_20  and  C_33 
REMARK   11  A    between atoms: O_22  and  C_30 
REMARK   12  A    between atoms: O_22  and  C_70 
REMARK   13  A    between atoms: O_23  and  C_24 
REMARK   14  A    between atoms: C_24  and  C_28 
REMARK       I    between atoms: N_29  and  C_32 
REMARK   15  A    between atoms: N_29  and  C_35 
REMARK   16  A    between atoms: C_31  and  C_32 
REMARK   17  A    between atoms: O_38  and  C_43 
REMARK   18  A    between atoms: C_40  and  C_55 
REMARK   19  A    between atoms: O_42  and  C_55 
REMARK   20  A    between atoms: O_44  and  C_52 
REMARK   21  A    between atoms: O_45  and  C_46 
REMARK   22  A    between atoms: C_46  and  C_50 
REMARK   23  A    between atoms: C_49  and  O_87 
REMARK       I    between atoms: N_51  and  C_54 
REMARK   24  A    between atoms: N_51  and  C_57 
REMARK   25  A    between atoms: C_53  and  C_54 
REMARK   26  A    between atoms: O_60  and  C_65 
REMARK   27  A    between atoms: C_62  and  C_76 
REMARK   28  A    between atoms: O_64  and  C_76 
REMARK   29  A    between atoms: O_66  and  C_67 
REMARK   30  A    between atoms: C_67  and  C_71 
REMARK       I    between atoms: N_72  and  C_75 
REMARK   31  A    between atoms: N_72  and  C_78 
REMARK   32  A    between atoms: C_74  and  C_75 
REMARK   33  A    between atoms: O_81  and  C_86 
REMARK   34  A    between atoms: C_83  and  C_98 
REMARK   35  A    between atoms: O_85  and  C_98 
REMARK   36  A    between atoms: O_87  and  C_95 
REMARK   37  A    between atoms: O_88  and  C_89 
REMARK   38  A    between atoms: C_89  and  C_93 
REMARK       I    between atoms: N_94  and  C_97 
REMARK   39  A    between atoms: N_94  and  C_100 
REMARK   40  A    between atoms: C_96  and  C_97 
ROOT
HETATM    1  C   UNL     1      24.684  70.195  26.375  1.00  0.00     0.186 C 
HETATM    2  C   UNL     1      23.176  70.147  26.723  1.00  0.00     0.179 C 
HETATM    3  C   UNL     1      24.872  70.459  24.866  1.00  0.00     0.187 C 
HETATM    4  C   UNL     1      24.038  69.424  24.077  1.00  0.00     0.303 C 
HETATM    5  C   UNL     1      22.519  69.575  24.441  1.00  0.00     0.296 C 
HETATM    6  O   UNL     1      22.321  70.411  25.588  1.00  0.00    -0.349 OA
ENDROOT
BRANCH   1   7
HETATM    7  O   UNL     1      25.333  71.227  27.137  1.00  0.00    -0.348 OA
BRANCH   7   8
HETATM    8  C   UNL     1      26.766  71.185  27.149  1.00  0.00     0.286 C 
HETATM    9  O   UNL     1      27.142  69.803  27.208  1.00  0.00    -0.349 OA
HETATM   10  C   UNL     1      28.561  69.554  27.199  1.00  0.00     0.180 C 
HETATM   11  C   UNL     1      29.334  70.358  28.267  1.00  0.00     0.186 C 
HETATM   12  C   UNL     1      28.356  71.136  29.164  1.00  0.00     0.177 C 
HETATM   13  C   UNL     1      27.359  71.978  28.354  1.00  0.00     0.171 C 
BRANCH  10  14
HETATM   14  C   UNL     1      29.137  69.770  25.791  1.00  0.00     0.198 C 
BRANCH  14  15
HETATM   15  O   UNL     1      30.493  70.201  25.852  1.00  0.00    -0.398 OA
HETATM   16  H   UNL     1      30.505  71.174  25.759  1.00  0.00     0.209 HD
ENDBRANCH  14  15
ENDBRANCH  10  14
BRANCH  11  17
HETATM   17  O   UNL     1      30.051  69.425  29.090  1.00  0.00    -0.348 OA
BRANCH  17  18
HETATM   18  C   UNL     1      31.436  69.695  29.329  1.00  0.00     0.286 C 
HETATM   19  O   UNL     1      32.123  69.418  28.114  1.00  0.00    -0.352 OA
HETATM   20  C   UNL     1      33.536  69.692  28.142  1.00  0.00     0.150 C 
HETATM   21  C   UNL     1      34.184  69.482  29.515  1.00  0.00     0.068 C 
HETATM   22  C   UNL     1      33.447  68.415  30.303  1.00  0.00     0.148 C 
HETATM   23  C   UNL     1      31.976  68.834  30.512  1.00  0.00     0.168 C 
BRANCH  20  24
HETATM   24  C   UNL     1      33.779  71.111  27.613  1.00  0.00     0.196 C 
BRANCH  24  25
HETATM   25  O   UNL     1      32.730  71.492  26.727  1.00  0.00    -0.398 OA
HETATM   26  H   UNL     1      33.127  72.107  26.080  1.00  0.00     0.209 HD
ENDBRANCH  24  25
ENDBRANCH  20  24
BRANCH  22  27
HETATM   27  O   UNL     1      33.548  67.178  29.591  1.00  0.00    -0.393 OA
HETATM   28  H   UNL     1      33.541  66.477  30.269  1.00  0.00     0.210 HD
ENDBRANCH  22  27
BRANCH  23  29
HETATM   29  N   UNL     1      31.124  67.680  30.830  1.00  0.00    -0.346 N 
HETATM   30  C   UNL     1      30.158  67.793  31.799  1.00  0.00     0.241 C 
HETATM   31  O   UNL     1      30.124  68.708  32.612  1.00  0.00    -0.269 OA
HETATM   32  H   UNL     1      31.049  66.966  30.108  1.00  0.00     0.163 HD
BRANCH  30  33
HETATM   33  C   UNL     1      29.087  66.783  31.682  1.00  0.00     0.080 C 
HETATM   34  C   UNL     1      28.589  66.530  30.465  1.00  0.00     0.086 C 
BRANCH  34  35
HETATM   35  C   UNL     1      27.642  65.428  30.291  1.00  0.00     0.165 C 
HETATM   36  O   UNL     1      26.429  65.499  30.271  1.00  0.00    -0.647 OA
BRANCH  35  37
HETATM   37  O   UNL     1      28.301  64.265  30.181  1.00  0.00    -0.773 OA
HETATM   38  H   UNL     1      28.571  64.225  29.240  1.00  0.00     0.167 HD
ENDBRANCH  35  37
ENDBRANCH  34  35
ENDBRANCH  30  33
ENDBRANCH  23  29
ENDBRANCH  17  18
ENDBRANCH  11  17
BRANCH  12  39
HETATM   39  O   UNL     1      27.662  70.251  30.064  1.00  0.00    -0.391 OA
HETATM   40  H   UNL     1      27.468  70.753  30.881  1.00  0.00     0.210 HD
ENDBRANCH  12  39
BRANCH  13  41
HETATM   41  N   UNL     1      26.353  72.534  29.257  1.00  0.00    -0.346 N 
HETATM   42  C   UNL     1      26.104  73.876  29.336  1.00  0.00     0.241 C 
HETATM   43  O   UNL     1      26.779  74.723  28.764  1.00  0.00    -0.269 OA
HETATM   44  H   UNL     1      25.704  71.874  29.672  1.00  0.00     0.163 HD
BRANCH  42  45
HETATM   45  C   UNL     1      24.929  74.198  30.169  1.00  0.00     0.080 C 
HETATM   46  C   UNL     1      24.007  73.254  30.395  1.00  0.00     0.086 C 
BRANCH  46  47
HETATM   47  C   UNL     1      22.870  73.568  31.259  1.00  0.00     0.165 C 
HETATM   48  O   UNL     1      22.902  74.031  32.383  1.00  0.00    -0.647 OA
BRANCH  47  49
HETATM   49  O   UNL     1      21.716  73.285  30.635  1.00  0.00    -0.773 OA
HETATM   50  H   UNL     1      21.958  72.586  29.994  1.00  0.00     0.167 HD
ENDBRANCH  47  49
ENDBRANCH  46  47
ENDBRANCH  42  45
ENDBRANCH  13  41
ENDBRANCH   7   8
ENDBRANCH   1   7
BRANCH   2  51
HETATM   51  C   UNL     1      22.789  68.809  27.372  1.00  0.00     0.198 C 
BRANCH  51  52
HETATM   52  O   UNL     1      21.520  68.903  28.012  1.00  0.00    -0.398 OA
HETATM   53  H   UNL     1      21.289  68.019  28.357  1.00  0.00     0.209 HD
ENDBRANCH  51  52
ENDBRANCH   2  51
BRANCH   3  54
HETATM   54  O   UNL     1      24.507  71.799  24.499  1.00  0.00    -0.391 OA
HETATM   55  H   UNL     1      23.531  71.853  24.496  1.00  0.00     0.210 HD
ENDBRANCH   3  54
BRANCH   4  56
HETATM   56  N   UNL     1      24.368  69.486  22.643  1.00  0.00     0.090 N 
HETATM   57  H   UNL     1      24.071  70.361  22.226  1.00  0.00     0.313 HD
HETATM   58  H   UNL     1      25.389  69.436  22.554  1.00  0.00     0.313 HD
ENDBRANCH   4  56
BRANCH   5  59
HETATM   59  O   UNL     1      21.788  70.178  23.356  1.00  0.00    -0.348 OA
BRANCH  59  60
HETATM   60  C   UNL     1      20.645  69.427  22.904  1.00  0.00     0.186 C 
HETATM   61  C   UNL     1      20.060  69.982  21.578  1.00  0.00     0.179 C 
HETATM   62  O   UNL     1      19.909  69.008  20.524  1.00  0.00    -0.349 OA
HETATM   63  C   UNL     1      19.328  67.744  20.866  1.00  0.00     0.281 C 
HETATM   64  C   UNL     1      19.851  67.179  22.218  1.00  0.00     0.149 C 
HETATM   65  C   UNL     1      21.075  67.957  22.737  1.00  0.00     0.172 C 
BRANCH  61  66
HETATM   66  C   UNL     1      18.701  70.664  21.804  1.00  0.00     0.198 C 
BRANCH  66  67
HETATM   67  O   UNL     1      18.315  70.582  23.171  1.00  0.00    -0.398 OA
HETATM   68  H   UNL     1      18.092  69.649  23.363  1.00  0.00     0.209 HD
ENDBRANCH  66  67
ENDBRANCH  61  66
BRANCH  63  69
HETATM   69  O   UNL     1      19.557  66.842  19.785  1.00  0.00    -0.349 OA
BRANCH  69  70
HETATM   70  C   UNL     1      19.844  67.446  18.515  1.00  0.00     0.186 C 
HETATM   71  C   UNL     1      21.282  67.134  18.033  1.00  0.00     0.176 C 
HETATM   72  O   UNL     1      21.351  66.933  16.595  1.00  0.00    -0.379 OA
HETATM   73  C   UNL     1      20.544  67.850  15.847  1.00  0.00     0.196 C 
HETATM   74  C   UNL     1      19.045  67.639  16.129  1.00  0.00     0.139 C 
HETATM   75  C   UNL     1      18.843  66.903  17.467  1.00  0.00     0.174 C 
BRANCH  71  76
HETATM   76  C   UNL     1      22.306  68.212  18.412  1.00  0.00     0.198 C 
BRANCH  76  77
HETATM   77  O   UNL     1      23.307  67.654  19.264  1.00  0.00    -0.398 OA
HETATM   78  H   UNL     1      23.495  66.759  18.921  1.00  0.00     0.209 HD
ENDBRANCH  76  77
ENDBRANCH  71  76
BRANCH  74  79
HETATM   79  N   UNL     1      18.401  66.912  15.033  1.00  0.00    -0.348 N 
HETATM   80  C   UNL     1      17.132  67.199  14.610  1.00  0.00     0.241 C 
HETATM   81  O   UNL     1      16.418  68.060  15.108  1.00  0.00    -0.269 OA
HETATM   82  H   UNL     1      18.874  66.079  14.701  1.00  0.00     0.163 HD
BRANCH  80  83
HETATM   83  C   UNL     1      16.709  66.388  13.448  1.00  0.00     0.080 C 
HETATM   84  C   UNL     1      17.273  66.615  12.254  1.00  0.00     0.086 C 
BRANCH  84  85
HETATM   85  C   UNL     1      16.936  65.742  11.129  1.00  0.00     0.165 C 
HETATM   86  O   UNL     1      16.261  66.024  10.158  1.00  0.00    -0.647 OA
BRANCH  85  87
HETATM   87  O   UNL     1      17.467  64.524  11.309  1.00  0.00    -0.773 OA
HETATM   88  H   UNL     1      17.326  64.336  12.260  1.00  0.00     0.167 HD
ENDBRANCH  85  87
ENDBRANCH  84  85
ENDBRANCH  80  83
ENDBRANCH  74  79
BRANCH  75  89
HETATM   89  O   UNL     1      18.998  65.485  17.270  1.00  0.00    -0.391 OA
HETATM   90  H   UNL     1      18.113  65.097  17.137  1.00  0.00     0.210 HD
ENDBRANCH  75  89
ENDBRANCH  69  70
ENDBRANCH  63  69
BRANCH  64  91
HETATM   91  N   UNL     1      19.900  65.718  22.397  1.00  0.00    -0.247 NA
HETATM   92  C   UNL     1      19.239  65.092  23.420  1.00  0.00     0.221 C 
HETATM   93  O   UNL     1      18.243  64.421  23.160  1.00  0.00    -0.275 OA
HETATM   94  H   UNL     1      19.521  65.277  21.566  1.00  0.00     0.131 HD
BRANCH  92  95
HETATM   95  C   UNL     1      19.941  65.001  24.708  1.00  0.00     0.074 C 
HETATM   96  C   UNL     1      19.297  65.563  25.742  1.00  0.00     0.086 C 
BRANCH  96  97
HETATM   97  C   UNL     1      19.806  65.475  27.109  1.00  0.00     0.165 C 
HETATM   98  O   UNL     1      20.210  66.376  27.820  1.00  0.00    -0.647 OA
BRANCH  97  99
HETATM   99  O   UNL     1      19.797  64.194  27.512  1.00  0.00    -0.773 OA
HETATM  100  H   UNL     1      20.726  63.905  27.401  1.00  0.00     0.167 HD
ENDBRANCH  97  99
ENDBRANCH  96  97
ENDBRANCH  92  95
ENDBRANCH  64  91
BRANCH  65 101
HETATM  101  O   UNL     1      22.192  67.837  21.860  1.00  0.00    -0.391 OA
HETATM  102  H   UNL     1      21.937  67.208  21.157  1.00  0.00     0.210 HD
ENDBRANCH  65 101
ENDBRANCH  59  60
ENDBRANCH   5  59
TORSDOF 40
ENDMDL
