MODEL 1
REMARK VINA RESULT:      -7.6      0.000      0.000
REMARK WARNING: 32 MAX_TORS EXCEEDED!!!
REMARK  44 active torsions:
REMARK  status: ('A' for Active; 'I' for Inactive)
REMARK    1  A    between atoms: C_1  and  O_44 
REMARK    2  A    between atoms: C_2  and  C_6 
REMARK    3  A    between atoms: C_3  and  O_10 
REMARK    4  A    between atoms: C_4  and  N_12 
REMARK    5  A    between atoms: C_5  and  O_14 
REMARK    6  A    between atoms: C_6  and  O_7 
REMARK    7  A    between atoms: O_14  and  C_27 
REMARK    8  A    between atoms: O_16  and  C_21 
REMARK    9  A    between atoms: C_18  and  C_33 
REMARK   10  A    between atoms: O_20  and  C_33 
REMARK   11  A    between atoms: O_22  and  C_30 
REMARK   12  A    between atoms: O_22  and  C_70 
REMARK   13  A    between atoms: O_23  and  C_24 
REMARK   14  A    between atoms: C_24  and  C_28 
REMARK   15  A    between atoms: C_28  and  C_31 
REMARK       I    between atoms: N_29  and  C_32 
REMARK   16  A    between atoms: N_29  and  C_35 
REMARK   17  A    between atoms: C_31  and  C_32 
REMARK   18  A    between atoms: O_38  and  C_43 
REMARK   19  A    between atoms: C_40  and  C_55 
REMARK   20  A    between atoms: O_42  and  C_55 
REMARK   21  A    between atoms: O_44  and  C_52 
REMARK   22  A    between atoms: O_45  and  C_46 
REMARK   23  A    between atoms: C_46  and  C_50 
REMARK   24  A    between atoms: C_49  and  O_87 
REMARK   25  A    between atoms: C_50  and  C_53 
REMARK       I    between atoms: N_51  and  C_54 
REMARK   26  A    between atoms: N_51  and  C_57 
REMARK   27  A    between atoms: C_53  and  C_54 
REMARK   28  A    between atoms: O_60  and  C_65 
REMARK   29  A    between atoms: C_62  and  C_76 
REMARK   30  A    between atoms: O_64  and  C_76 
REMARK   31  A    between atoms: O_66  and  C_67 
REMARK   32  A    between atoms: C_67  and  C_71 
REMARK   33  A    between atoms: C_71  and  C_74 
REMARK       I    between atoms: N_72  and  C_75 
REMARK   34  A    between atoms: N_72  and  C_78 
REMARK   35  A    between atoms: C_74  and  C_75 
REMARK   36  A    between atoms: O_81  and  C_86 
REMARK   37  A    between atoms: C_83  and  C_98 
REMARK   38  A    between atoms: O_85  and  C_98 
REMARK   39  A    between atoms: O_87  and  C_95 
REMARK   40  A    between atoms: O_88  and  C_89 
REMARK   41  A    between atoms: C_89  and  C_93 
REMARK   42  A    between atoms: C_93  and  C_96 
REMARK       I    between atoms: N_94  and  C_97 
REMARK   43  A    between atoms: N_94  and  C_100 
REMARK   44  A    between atoms: C_96  and  C_97 
ROOT
ATOM      1  C   UNL     1      22.307  70.036  25.127  1.00  0.00     0.186 C 
ATOM      2  C   UNL     1      23.521  70.875  24.669  1.00  0.00     0.179 C 
ATOM      3  C   UNL     1      22.126  70.138  26.654  1.00  0.00     0.187 C 
ATOM      4  C   UNL     1      23.463  69.810  27.350  1.00  0.00     0.303 C 
ATOM      5  C   UNL     1      24.580  70.802  26.866  1.00  0.00     0.296 C 
ATOM      6  O   UNL     1      24.153  71.593  25.751  1.00  0.00    -0.349 OA
ENDROOT
BRANCH   1   7
ATOM      7  O   UNL     1      21.113  70.506  24.482  1.00  0.00    -0.348 OA
BRANCH   7   8
ATOM      8  C   UNL     1      20.408  69.534  23.701  1.00  0.00     0.286 C 
ATOM      9  O   UNL     1      21.128  69.390  22.472  1.00  0.00    -0.349 OA
ATOM     10  C   UNL     1      20.583  68.418  21.560  1.00  0.00     0.180 C 
ATOM     11  C   UNL     1      19.078  68.624  21.272  1.00  0.00     0.186 C 
ATOM     12  C   UNL     1      18.576  69.910  21.947  1.00  0.00     0.177 C 
ATOM     13  C   UNL     1      18.934  69.970  23.439  1.00  0.00     0.170 C 
BRANCH  10  14
ATOM     14  C   UNL     1      20.883  66.991  22.045  1.00  0.00     0.198 C 
BRANCH  14  15
ATOM     15  O   UNL     1      20.768  66.049  20.983  1.00  0.00    -0.398 OA
ATOM     16  H   UNL     1      19.819  65.867  20.840  1.00  0.00     0.209 HD
ENDBRANCH  14  15
ENDBRANCH  10  14
BRANCH  11  17
ATOM     17  O   UNL     1      18.919  68.769  19.853  1.00  0.00    -0.348 OA
BRANCH  17  18
ATOM     18  C   UNL     1      18.200  67.738  19.172  1.00  0.00     0.286 C 
ATOM     19  O   UNL     1      17.920  66.727  20.134  1.00  0.00    -0.352 OA
ATOM     20  C   UNL     1      17.099  65.649  19.649  1.00  0.00     0.150 C 
ATOM     21  C   UNL     1      17.298  65.339  18.162  1.00  0.00     0.068 C 
ATOM     22  C   UNL     1      18.715  65.674  17.727  1.00  0.00     0.148 C 
ATOM     23  C   UNL     1      19.009  67.172  17.963  1.00  0.00     0.168 C 
BRANCH  20  24
ATOM     24  C   UNL     1      15.631  65.963  19.969  1.00  0.00     0.196 C 
BRANCH  24  25
ATOM     25  O   UNL     1      15.540  66.704  21.184  1.00  0.00    -0.398 OA
ATOM     26  H   UNL     1      15.163  66.094  21.849  1.00  0.00     0.209 HD
ENDBRANCH  24  25
ENDBRANCH  20  24
BRANCH  22  27
ATOM     27  O   UNL     1      19.617  64.835  18.456  1.00  0.00    -0.393 OA
ATOM     28  H   UNL     1      19.302  64.844  19.381  1.00  0.00     0.210 HD
ENDBRANCH  22  27
BRANCH  23  29
ATOM     29  N   UNL     1      20.454  67.428  18.040  1.00  0.00    -0.349 N 
ATOM     30  C   UNL     1      21.134  67.883  16.933  1.00  0.00     0.218 C 
ATOM     31  O   UNL     1      20.630  67.880  15.814  1.00  0.00    -0.274 OA
ATOM     32  H   UNL     1      20.853  67.548  18.971  1.00  0.00     0.163 HD
BRANCH  30  33
ATOM     33  C   UNL     1      22.533  68.385  17.211  1.00  0.00     0.113 C 
BRANCH  33  34
ATOM     34  C   UNL     1      22.633  68.898  18.645  1.00  0.00     0.119 C 
BRANCH  34  35
ATOM     35  C   UNL     1      23.529  68.036  19.486  1.00  0.00     0.139 C 
ATOM     36  O   UNL     1      23.455  66.832  19.650  1.00  0.00    -0.650 OA
BRANCH  35  37
ATOM     37  O   UNL     1      24.482  68.759  20.108  1.00  0.00    -0.776 OA
ATOM     38  H   UNL     1      25.127  68.973  19.402  1.00  0.00     0.167 HD
ENDBRANCH  35  37
ENDBRANCH  34  35
ENDBRANCH  33  34
ENDBRANCH  30  33
ENDBRANCH  23  29
ENDBRANCH  17  18
ENDBRANCH  11  17
BRANCH  12  39
ATOM     39  O   UNL     1      19.064  71.079  21.262  1.00  0.00    -0.391 OA
ATOM     40  H   UNL     1      18.360  71.384  20.659  1.00  0.00     0.210 HD
ENDBRANCH  12  39
BRANCH  13  41
ATOM     41  N   UNL     1      18.596  71.293  23.959  1.00  0.00    -0.349 N 
ATOM     42  C   UNL     1      17.500  71.513  24.756  1.00  0.00     0.218 C 
ATOM     43  O   UNL     1      16.644  70.655  24.948  1.00  0.00    -0.274 OA
ATOM     44  H   UNL     1      19.329  71.996  23.928  1.00  0.00     0.163 HD
BRANCH  42  45
ATOM     45  C   UNL     1      17.441  72.917  25.308  1.00  0.00     0.113 C 
BRANCH  45  46
ATOM     46  C   UNL     1      17.406  72.922  26.829  1.00  0.00     0.119 C 
BRANCH  46  47
ATOM     47  C   UNL     1      16.685  74.135  27.339  1.00  0.00     0.139 C 
ATOM     48  O   UNL     1      17.076  75.290  27.323  1.00  0.00    -0.650 OA
BRANCH  47  49
ATOM     49  O   UNL     1      15.467  73.832  27.829  1.00  0.00    -0.776 OA
ATOM     50  H   UNL     1      15.556  72.907  28.140  1.00  0.00     0.167 HD
ENDBRANCH  47  49
ENDBRANCH  46  47
ENDBRANCH  45  46
ENDBRANCH  42  45
ENDBRANCH  13  41
ENDBRANCH   7   8
ENDBRANCH   1   7
BRANCH   2  51
ATOM     51  C   UNL     1      24.557  70.012  23.929  1.00  0.00     0.198 C 
BRANCH  51  52
ATOM     52  O   UNL     1      24.079  69.637  22.642  1.00  0.00    -0.398 OA
ATOM     53  H   UNL     1      23.472  70.335  22.330  1.00  0.00     0.209 HD
ENDBRANCH  51  52
ENDBRANCH   2  51
BRANCH   3  54
ATOM     54  O   UNL     1      21.658  71.436  27.062  1.00  0.00    -0.391 OA
ATOM     55  H   UNL     1      22.179  71.705  27.843  1.00  0.00     0.210 HD
ENDBRANCH   3  54
BRANCH   4  56
ATOM     56  N   UNL     1      23.243  69.727  28.806  1.00  0.00     0.090 N 
ATOM     57  H   UNL     1      22.397  70.208  29.083  1.00  0.00     0.313 HD
ATOM     58  H   UNL     1      23.103  68.737  29.039  1.00  0.00     0.313 HD
ENDBRANCH   4  56
BRANCH   5  59
ATOM     59  O   UNL     1      24.943  71.721  27.914  1.00  0.00    -0.348 OA
BRANCH  59  60
ATOM     60  C   UNL     1      26.333  72.098  27.938  1.00  0.00     0.186 C 
ATOM     61  C   UNL     1      26.799  72.525  29.355  1.00  0.00     0.179 C 
ATOM     62  O   UNL     1      27.969  71.835  29.841  1.00  0.00    -0.349 OA
ATOM     63  C   UNL     1      29.071  71.687  28.942  1.00  0.00     0.281 C 
ATOM     64  C   UNL     1      28.639  71.284  27.503  1.00  0.00     0.149 C 
ATOM     65  C   UNL     1      27.152  70.897  27.429  1.00  0.00     0.172 C 
BRANCH  61  66
ATOM     66  C   UNL     1      27.065  74.037  29.431  1.00  0.00     0.198 C 
BRANCH  66  67
ATOM     67  O   UNL     1      27.596  74.391  30.703  1.00  0.00    -0.398 OA
ATOM     68  H   UNL     1      28.506  74.040  30.756  1.00  0.00     0.209 HD
ENDBRANCH  66  67
ENDBRANCH  61  66
BRANCH  63  69
ATOM     69  O   UNL     1      29.975  70.743  29.506  1.00  0.00    -0.349 OA
BRANCH  69  70
ATOM     70  C   UNL     1      31.292  71.226  29.797  1.00  0.00     0.186 C 
ATOM     71  C   UNL     1      31.554  71.298  31.321  1.00  0.00     0.176 C 
ATOM     72  O   UNL     1      32.912  70.918  31.666  1.00  0.00    -0.379 OA
ATOM     73  C   UNL     1      33.899  71.425  30.760  1.00  0.00     0.196 C 
ATOM     74  C   UNL     1      33.746  70.808  29.358  1.00  0.00     0.139 C 
ATOM     75  C   UNL     1      32.319  70.266  29.151  1.00  0.00     0.174 C 
BRANCH  71  76
ATOM     76  C   UNL     1      31.274  72.683  31.921  1.00  0.00     0.198 C 
BRANCH  76  77
ATOM     77  O   UNL     1      29.884  72.987  31.816  1.00  0.00    -0.398 OA
ATOM     78  H   UNL     1      29.404  72.151  31.975  1.00  0.00     0.209 HD
ENDBRANCH  76  77
ENDBRANCH  71  76
BRANCH  74  79
ATOM     79  N   UNL     1      34.723  69.742  29.141  1.00  0.00    -0.352 N 
ATOM     80  C   UNL     1      35.585  69.734  28.070  1.00  0.00     0.218 C 
ATOM     81  O   UNL     1      35.654  70.647  27.256  1.00  0.00    -0.274 OA
ATOM     82  H   UNL     1      34.552  68.872  29.637  1.00  0.00     0.163 HD
BRANCH  80  83
ATOM     83  C   UNL     1      36.465  68.504  28.028  1.00  0.00     0.113 C 
BRANCH  83  84
ATOM     84  C   UNL     1      36.259  67.619  29.250  1.00  0.00     0.119 C 
BRANCH  84  85
ATOM     85  C   UNL     1      35.240  66.554  28.976  1.00  0.00     0.139 C 
ATOM     86  O   UNL     1      34.026  66.676  28.981  1.00  0.00    -0.650 OA
BRANCH  85  87
ATOM     87  O   UNL     1      35.809  65.363  28.711  1.00  0.00    -0.776 OA
ATOM     88  H   UNL     1      35.155  64.705  29.025  1.00  0.00     0.167 HD
ENDBRANCH  85  87
ENDBRANCH  84  85
ENDBRANCH  83  84
ENDBRANCH  80  83
ENDBRANCH  74  79
BRANCH  75  89
ATOM     89  O   UNL     1      32.229  68.934  29.698  1.00  0.00    -0.391 OA
ATOM     90  H   UNL     1      32.975  68.413  29.348  1.00  0.00     0.210 HD
ENDBRANCH  75  89
ENDBRANCH  69  70
ENDBRANCH  63  69
BRANCH  64  91
ATOM     91  N   UNL     1      29.552  70.471  26.682  1.00  0.00    -0.251 NA
ATOM     92  C   UNL     1      29.185  69.273  26.129  1.00  0.00     0.198 C 
ATOM     93  O   UNL     1      29.125  69.222  24.899  1.00  0.00    -0.280 OA
ATOM     94  H   UNL     1      29.876  71.016  25.889  1.00  0.00     0.131 HD
BRANCH  92  95
ATOM     95  C   UNL     1      29.032  68.047  26.993  1.00  0.00     0.107 C 
BRANCH  95  96
ATOM     96  C   UNL     1      28.273  67.011  26.164  1.00  0.00     0.118 C 
BRANCH  96  97
ATOM     97  C   UNL     1      28.270  65.646  26.780  1.00  0.00     0.139 C 
ATOM     98  O   UNL     1      29.039  65.202  27.616  1.00  0.00    -0.650 OA
BRANCH  97  99
ATOM     99  O   UNL     1      27.220  64.910  26.358  1.00  0.00    -0.776 OA
ATOM    100  H   UNL     1      27.321  64.060  26.833  1.00  0.00     0.167 HD
ENDBRANCH  97  99
ENDBRANCH  96  97
ENDBRANCH  95  96
ENDBRANCH  92  95
ENDBRANCH  64  91
BRANCH  65 101
ATOM    101  O   UNL     1      26.866  69.719  28.178  1.00  0.00    -0.391 OA
ATOM    102  H   UNL     1      26.271  69.985  28.907  1.00  0.00     0.210 HD
ENDBRANCH  65 101
ENDBRANCH  59  60
ENDBRANCH   5  59
TORSDOF 44
ENDMDL
MODEL 2
REMARK VINA RESULT:      -7.5      2.970      6.284
REMARK WARNING: 32 MAX_TORS EXCEEDED!!!
REMARK  44 active torsions:
REMARK  status: ('A' for Active; 'I' for Inactive)
REMARK    1  A    between atoms: C_1  and  O_44 
REMARK    2  A    between atoms: C_2  and  C_6 
REMARK    3  A    between atoms: C_3  and  O_10 
REMARK    4  A    between atoms: C_4  and  N_12 
REMARK    5  A    between atoms: C_5  and  O_14 
REMARK    6  A    between atoms: C_6  and  O_7 
REMARK    7  A    between atoms: O_14  and  C_27 
REMARK    8  A    between atoms: O_16  and  C_21 
REMARK    9  A    between atoms: C_18  and  C_33 
REMARK   10  A    between atoms: O_20  and  C_33 
REMARK   11  A    between atoms: O_22  and  C_30 
REMARK   12  A    between atoms: O_22  and  C_70 
REMARK   13  A    between atoms: O_23  and  C_24 
REMARK   14  A    between atoms: C_24  and  C_28 
REMARK   15  A    between atoms: C_28  and  C_31 
REMARK       I    between atoms: N_29  and  C_32 
REMARK   16  A    between atoms: N_29  and  C_35 
REMARK   17  A    between atoms: C_31  and  C_32 
REMARK   18  A    between atoms: O_38  and  C_43 
REMARK   19  A    between atoms: C_40  and  C_55 
REMARK   20  A    between atoms: O_42  and  C_55 
REMARK   21  A    between atoms: O_44  and  C_52 
REMARK   22  A    between atoms: O_45  and  C_46 
REMARK   23  A    between atoms: C_46  and  C_50 
REMARK   24  A    between atoms: C_49  and  O_87 
REMARK   25  A    between atoms: C_50  and  C_53 
REMARK       I    between atoms: N_51  and  C_54 
REMARK   26  A    between atoms: N_51  and  C_57 
REMARK   27  A    between atoms: C_53  and  C_54 
REMARK   28  A    between atoms: O_60  and  C_65 
REMARK   29  A    between atoms: C_62  and  C_76 
REMARK   30  A    between atoms: O_64  and  C_76 
REMARK   31  A    between atoms: O_66  and  C_67 
REMARK   32  A    between atoms: C_67  and  C_71 
REMARK   33  A    between atoms: C_71  and  C_74 
REMARK       I    between atoms: N_72  and  C_75 
REMARK   34  A    between atoms: N_72  and  C_78 
REMARK   35  A    between atoms: C_74  and  C_75 
REMARK   36  A    between atoms: O_81  and  C_86 
REMARK   37  A    between atoms: C_83  and  C_98 
REMARK   38  A    between atoms: O_85  and  C_98 
REMARK   39  A    between atoms: O_87  and  C_95 
REMARK   40  A    between atoms: O_88  and  C_89 
REMARK   41  A    between atoms: C_89  and  C_93 
REMARK   42  A    between atoms: C_93  and  C_96 
REMARK       I    between atoms: N_94  and  C_97 
REMARK   43  A    between atoms: N_94  and  C_100 
REMARK   44  A    between atoms: C_96  and  C_97 
ROOT
ATOM      1  C   UNL     1      19.594  68.412  22.056  1.00  0.00     0.186 C 
ATOM      2  C   UNL     1      20.865  67.731  22.609  1.00  0.00     0.179 C 
ATOM      3  C   UNL     1      19.323  69.734  22.799  1.00  0.00     0.187 C 
ATOM      4  C   UNL     1      19.331  69.476  24.321  1.00  0.00     0.303 C 
ATOM      5  C   UNL     1      20.717  68.880  24.757  1.00  0.00     0.296 C 
ATOM      6  O   UNL     1      21.523  68.509  23.633  1.00  0.00    -0.349 OA
ENDROOT
BRANCH   1   7
ATOM      7  O   UNL     1      19.753  68.686  20.655  1.00  0.00    -0.348 OA
BRANCH   7   8
ATOM      8  C   UNL     1      18.922  67.920  19.776  1.00  0.00     0.286 C 
ATOM      9  O   UNL     1      18.084  67.106  20.603  1.00  0.00    -0.349 OA
ATOM     10  C   UNL     1      17.145  66.280  19.890  1.00  0.00     0.180 C 
ATOM     11  C   UNL     1      17.801  65.417  18.788  1.00  0.00     0.186 C 
ATOM     12  C   UNL     1      19.329  65.574  18.825  1.00  0.00     0.177 C 
ATOM     13  C   UNL     1      19.771  67.045  18.804  1.00  0.00     0.170 C 
BRANCH  10  14
ATOM     14  C   UNL     1      15.987  67.127  19.340  1.00  0.00     0.198 C 
BRANCH  14  15
ATOM     15  O   UNL     1      15.366  66.494  18.225  1.00  0.00    -0.398 OA
ATOM     16  H   UNL     1      14.399  66.541  18.349  1.00  0.00     0.209 HD
ENDBRANCH  14  15
ENDBRANCH  10  14
BRANCH  11  17
ATOM     17  O   UNL     1      17.483  64.044  19.057  1.00  0.00    -0.348 OA
BRANCH  17  18
ATOM     18  C   UNL     1      17.480  63.148  17.944  1.00  0.00     0.286 C 
ATOM     19  O   UNL     1      16.225  63.306  17.291  1.00  0.00    -0.352 OA
ATOM     20  C   UNL     1      16.085  62.555  16.071  1.00  0.00     0.150 C 
ATOM     21  C   UNL     1      16.854  61.230  16.068  1.00  0.00     0.068 C 
ATOM     22  C   UNL     1      16.971  60.671  17.476  1.00  0.00     0.148 C 
ATOM     23  C   UNL     1      17.712  61.671  18.390  1.00  0.00     0.168 C 
BRANCH  20  24
ATOM     24  C   UNL     1      16.491  63.448  14.890  1.00  0.00     0.196 C 
BRANCH  24  25
ATOM     25  O   UNL     1      16.346  62.736  13.664  1.00  0.00    -0.398 OA
ATOM     26  H   UNL     1      17.235  62.393  13.440  1.00  0.00     0.209 HD
ENDBRANCH  24  25
ENDBRANCH  20  24
BRANCH  22  27
ATOM     27  O   UNL     1      15.652  60.391  17.956  1.00  0.00    -0.393 OA
ATOM     28  H   UNL     1      15.101  60.253  17.162  1.00  0.00     0.210 HD
ENDBRANCH  22  27
BRANCH  23  29
ATOM     29  N   UNL     1      17.414  61.422  19.808  1.00  0.00    -0.349 N 
ATOM     30  C   UNL     1      18.302  60.715  20.586  1.00  0.00     0.218 C 
ATOM     31  O   UNL     1      19.239  60.089  20.099  1.00  0.00    -0.274 OA
ATOM     32  H   UNL     1      16.715  62.024  20.245  1.00  0.00     0.163 HD
BRANCH  30  33
ATOM     33  C   UNL     1      18.032  60.778  22.073  1.00  0.00     0.113 C 
BRANCH  33  34
ATOM     34  C   UNL     1      17.030  59.697  22.472  1.00  0.00     0.119 C 
BRANCH  34  35
ATOM     35  C   UNL     1      17.715  58.451  22.952  1.00  0.00     0.139 C 
ATOM     36  O   UNL     1      17.766  58.028  24.092  1.00  0.00    -0.650 OA
BRANCH  35  37
ATOM     37  O   UNL     1      18.334  57.800  21.947  1.00  0.00    -0.776 OA
ATOM     38  H   UNL     1      17.616  57.313  21.492  1.00  0.00     0.167 HD
ENDBRANCH  35  37
ENDBRANCH  34  35
ENDBRANCH  33  34
ENDBRANCH  30  33
ENDBRANCH  23  29
ENDBRANCH  17  18
ENDBRANCH  11  17
BRANCH  12  39
ATOM     39  O   UNL     1      19.892  64.893  19.962  1.00  0.00    -0.391 OA
ATOM     40  H   UNL     1      20.397  65.549  20.479  1.00  0.00     0.210 HD
ENDBRANCH  12  39
BRANCH  13  41
ATOM     41  N   UNL     1      21.212  67.115  19.034  1.00  0.00    -0.349 N 
ATOM     42  C   UNL     1      22.065  67.760  18.174  1.00  0.00     0.218 C 
ATOM     43  O   UNL     1      21.702  68.176  17.077  1.00  0.00    -0.274 OA
ATOM     44  H   UNL     1      21.535  66.895  19.972  1.00  0.00     0.163 HD
BRANCH  42  45
ATOM     45  C   UNL     1      23.479  67.846  18.694  1.00  0.00     0.113 C 
BRANCH  45  46
ATOM     46  C   UNL     1      23.516  68.249  20.160  1.00  0.00     0.119 C 
BRANCH  46  47
ATOM     47  C   UNL     1      23.340  69.732  20.308  1.00  0.00     0.139 C 
ATOM     48  O   UNL     1      22.742  70.321  21.192  1.00  0.00    -0.650 OA
BRANCH  47  49
ATOM     49  O   UNL     1      23.966  70.417  19.331  1.00  0.00    -0.776 OA
ATOM     50  H   UNL     1      24.582  71.009  19.809  1.00  0.00     0.167 HD
ENDBRANCH  47  49
ENDBRANCH  46  47
ENDBRANCH  45  46
ENDBRANCH  42  45
ENDBRANCH  13  41
ENDBRANCH   7   8
ENDBRANCH   1   7
BRANCH   2  51
ATOM     51  C   UNL     1      20.567  66.315  23.130  1.00  0.00     0.198 C 
BRANCH  51  52
ATOM     52  O   UNL     1      19.281  65.877  22.704  1.00  0.00    -0.398 OA
ATOM     53  H   UNL     1      18.790  65.572  23.491  1.00  0.00     0.209 HD
ENDBRANCH  51  52
ENDBRANCH   2  51
BRANCH   3  54
ATOM     54  O   UNL     1      20.278  70.755  22.461  1.00  0.00    -0.391 OA
ATOM     55  H   UNL     1      21.170  70.376  22.584  1.00  0.00     0.210 HD
ENDBRANCH   3  54
BRANCH   4  56
ATOM     56  N   UNL     1      18.890  70.697  25.021  1.00  0.00     0.090 N 
ATOM     57  H   UNL     1      18.686  70.514  25.995  1.00  0.00     0.313 HD
ATOM     58  H   UNL     1      19.675  71.358  25.009  1.00  0.00     0.313 HD
ENDBRANCH   4  56
BRANCH   5  59
ATOM     59  O   UNL     1      21.476  69.841  25.516  1.00  0.00    -0.348 OA
BRANCH  59  60
ATOM     60  C   UNL     1      22.886  69.564  25.610  1.00  0.00     0.186 C 
ATOM     61  C   UNL     1      23.745  70.847  25.464  1.00  0.00     0.179 C 
ATOM     62  O   UNL     1      24.694  71.065  26.529  1.00  0.00    -0.349 OA
ATOM     63  C   UNL     1      25.477  69.947  26.957  1.00  0.00     0.281 C 
ATOM     64  C   UNL     1      24.653  68.636  27.090  1.00  0.00     0.149 C 
ATOM     65  C   UNL     1      23.140  68.885  26.969  1.00  0.00     0.172 C 
BRANCH  61  66
ATOM     66  C   UNL     1      24.507  70.869  24.128  1.00  0.00     0.198 C 
BRANCH  66  67
ATOM     67  O   UNL     1      24.521  69.575  23.536  1.00  0.00    -0.398 OA
ATOM     68  H   UNL     1      23.840  69.557  22.836  1.00  0.00     0.209 HD
ENDBRANCH  66  67
ENDBRANCH  61  66
BRANCH  63  69
ATOM     69  O   UNL     1      26.113  70.299  28.181  1.00  0.00    -0.349 OA
BRANCH  69  70
ATOM     70  C   UNL     1      27.170  71.261  28.090  1.00  0.00     0.186 C 
ATOM     71  C   UNL     1      27.146  72.255  29.276  1.00  0.00     0.176 C 
ATOM     72  O   UNL     1      28.480  72.604  29.731  1.00  0.00    -0.379 OA
ATOM     73  C   UNL     1      29.416  72.806  28.666  1.00  0.00     0.196 C 
ATOM     74  C   UNL     1      29.679  71.501  27.892  1.00  0.00     0.139 C 
ATOM     75  C   UNL     1      28.520  70.505  28.090  1.00  0.00     0.174 C 
BRANCH  71  76
ATOM     76  C   UNL     1      26.387  73.554  28.966  1.00  0.00     0.198 C 
BRANCH  76  77
ATOM     77  O   UNL     1      25.230  73.266  28.184  1.00  0.00    -0.398 OA
ATOM     78  H   UNL     1      24.497  73.784  28.571  1.00  0.00     0.209 HD
ENDBRANCH  76  77
ENDBRANCH  71  76
BRANCH  74  79
ATOM     79  N   UNL     1      30.942  70.889  28.304  1.00  0.00    -0.352 N 
ATOM     80  C   UNL     1      32.030  70.802  27.468  1.00  0.00     0.218 C 
ATOM     81  O   UNL     1      32.055  71.291  26.345  1.00  0.00    -0.274 OA
ATOM     82  H   UNL     1      30.898  70.277  29.115  1.00  0.00     0.163 HD
BRANCH  80  83
ATOM     83  C   UNL     1      33.202  70.081  28.097  1.00  0.00     0.113 C 
BRANCH  83  84
ATOM     84  C   UNL     1      32.846  68.651  28.481  1.00  0.00     0.119 C 
BRANCH  84  85
ATOM     85  C   UNL     1      34.079  67.807  28.612  1.00  0.00     0.139 C 
ATOM     86  O   UNL     1      35.226  68.134  28.358  1.00  0.00    -0.650 OA
BRANCH  85  87
ATOM     87  O   UNL     1      33.801  66.568  29.059  1.00  0.00    -0.776 OA
ATOM     88  H   UNL     1      33.285  66.715  29.879  1.00  0.00     0.167 HD
ENDBRANCH  85  87
ENDBRANCH  84  85
ENDBRANCH  83  84
ENDBRANCH  80  83
ENDBRANCH  74  79
BRANCH  75  89
ATOM     89  O   UNL     1      28.725  69.769  29.313  1.00  0.00    -0.391 OA
ATOM     90  H   UNL     1      29.569  70.062  29.705  1.00  0.00     0.210 HD
ENDBRANCH  75  89
ENDBRANCH  69  70
ENDBRANCH  63  69
BRANCH  64  91
ATOM     91  N   UNL     1      25.057  67.633  28.090  1.00  0.00    -0.251 NA
ATOM     92  C   UNL     1      26.286  67.029  28.080  1.00  0.00     0.198 C 
ATOM     93  O   UNL     1      27.038  67.279  29.024  1.00  0.00    -0.280 OA
ATOM     94  H   UNL     1      24.990  68.033  29.021  1.00  0.00     0.131 HD
BRANCH  92  95
ATOM     95  C   UNL     1      26.615  65.983  27.046  1.00  0.00     0.107 C 
BRANCH  95  96
ATOM     96  C   UNL     1      27.971  66.358  26.449  1.00  0.00     0.118 C 
BRANCH  96  97
ATOM     97  C   UNL     1      27.889  67.454  25.433  1.00  0.00     0.139 C 
ATOM     98  O   UNL     1      26.960  67.712  24.686  1.00  0.00    -0.650 OA
BRANCH  97  99
ATOM     99  O   UNL     1      28.982  68.246  25.462  1.00  0.00    -0.776 OA
ATOM    100  H   UNL     1      29.600  67.774  26.056  1.00  0.00     0.167 HD
ENDBRANCH  97  99
ENDBRANCH  96  97
ENDBRANCH  95  96
ENDBRANCH  92  95
ENDBRANCH  64  91
BRANCH  65 101
ATOM    101  O   UNL     1      22.638  69.674  28.045  1.00  0.00    -0.391 OA
ATOM    102  H   UNL     1      22.146  69.070  28.635  1.00  0.00     0.210 HD
ENDBRANCH  65 101
ENDBRANCH  59  60
ENDBRANCH   5  59
TORSDOF 44
ENDMDL
MODEL 3
REMARK VINA RESULT:      -7.4      1.836      2.250
REMARK WARNING: 32 MAX_TORS EXCEEDED!!!
REMARK  44 active torsions:
REMARK  status: ('A' for Active; 'I' for Inactive)
REMARK    1  A    between atoms: C_1  and  O_44 
REMARK    2  A    between atoms: C_2  and  C_6 
REMARK    3  A    between atoms: C_3  and  O_10 
REMARK    4  A    between atoms: C_4  and  N_12 
REMARK    5  A    between atoms: C_5  and  O_14 
REMARK    6  A    between atoms: C_6  and  O_7 
REMARK    7  A    between atoms: O_14  and  C_27 
REMARK    8  A    between atoms: O_16  and  C_21 
REMARK    9  A    between atoms: C_18  and  C_33 
REMARK   10  A    between atoms: O_20  and  C_33 
REMARK   11  A    between atoms: O_22  and  C_30 
REMARK   12  A    between atoms: O_22  and  C_70 
REMARK   13  A    between atoms: O_23  and  C_24 
REMARK   14  A    between atoms: C_24  and  C_28 
REMARK   15  A    between atoms: C_28  and  C_31 
REMARK       I    between atoms: N_29  and  C_32 
REMARK   16  A    between atoms: N_29  and  C_35 
REMARK   17  A    between atoms: C_31  and  C_32 
REMARK   18  A    between atoms: O_38  and  C_43 
REMARK   19  A    between atoms: C_40  and  C_55 
REMARK   20  A    between atoms: O_42  and  C_55 
REMARK   21  A    between atoms: O_44  and  C_52 
REMARK   22  A    between atoms: O_45  and  C_46 
REMARK   23  A    between atoms: C_46  and  C_50 
REMARK   24  A    between atoms: C_49  and  O_87 
REMARK   25  A    between atoms: C_50  and  C_53 
REMARK       I    between atoms: N_51  and  C_54 
REMARK   26  A    between atoms: N_51  and  C_57 
REMARK   27  A    between atoms: C_53  and  C_54 
REMARK   28  A    between atoms: O_60  and  C_65 
REMARK   29  A    between atoms: C_62  and  C_76 
REMARK   30  A    between atoms: O_64  and  C_76 
REMARK   31  A    between atoms: O_66  and  C_67 
REMARK   32  A    between atoms: C_67  and  C_71 
REMARK   33  A    between atoms: C_71  and  C_74 
REMARK       I    between atoms: N_72  and  C_75 
REMARK   34  A    between atoms: N_72  and  C_78 
REMARK   35  A    between atoms: C_74  and  C_75 
REMARK   36  A    between atoms: O_81  and  C_86 
REMARK   37  A    between atoms: C_83  and  C_98 
REMARK   38  A    between atoms: O_85  and  C_98 
REMARK   39  A    between atoms: O_87  and  C_95 
REMARK   40  A    between atoms: O_88  and  C_89 
REMARK   41  A    between atoms: C_89  and  C_93 
REMARK   42  A    between atoms: C_93  and  C_96 
REMARK       I    between atoms: N_94  and  C_97 
REMARK   43  A    between atoms: N_94  and  C_100 
REMARK   44  A    between atoms: C_96  and  C_97 
ROOT
ATOM      1  C   UNL     1      22.158  69.868  25.690  1.00  0.00     0.186 C 
ATOM      2  C   UNL     1      23.153  71.021  25.436  1.00  0.00     0.179 C 
ATOM      3  C   UNL     1      22.161  69.470  27.178  1.00  0.00     0.187 C 
ATOM      4  C   UNL     1      23.611  69.210  27.635  1.00  0.00     0.303 C 
ATOM      5  C   UNL     1      24.484  70.496  27.413  1.00  0.00     0.296 C 
ATOM      6  O   UNL     1      23.797  71.489  26.642  1.00  0.00    -0.349 OA
ENDROOT
BRANCH   1   7
ATOM      7  O   UNL     1      20.831  70.272  25.316  1.00  0.00    -0.348 OA
BRANCH   7   8
ATOM      8  C   UNL     1      20.165  69.417  24.379  1.00  0.00     0.286 C 
ATOM      9  O   UNL     1      21.061  69.231  23.278  1.00  0.00    -0.349 OA
ATOM     10  C   UNL     1      20.573  68.363  22.239  1.00  0.00     0.180 C 
ATOM     11  C   UNL     1      19.171  68.755  21.720  1.00  0.00     0.186 C 
ATOM     12  C   UNL     1      18.707  70.067  22.372  1.00  0.00     0.177 C 
ATOM     13  C   UNL     1      18.813  70.033  23.904  1.00  0.00     0.170 C 
BRANCH  10  14
ATOM     14  C   UNL     1      20.627  66.895  22.689  1.00  0.00     0.198 C 
BRANCH  14  15
ATOM     15  O   UNL     1      20.312  66.013  21.615  1.00  0.00    -0.398 OA
ATOM     16  H   UNL     1      20.845  66.276  20.841  1.00  0.00     0.209 HD
ENDBRANCH  14  15
ENDBRANCH  10  14
BRANCH  11  17
ATOM     17  O   UNL     1      19.269  68.967  20.304  1.00  0.00    -0.348 OA
BRANCH  17  18
ATOM     18  C   UNL     1      18.493  68.109  19.464  1.00  0.00     0.286 C 
ATOM     19  O   UNL     1      17.804  67.207  20.321  1.00  0.00    -0.352 OA
ATOM     20  C   UNL     1      16.879  66.331  19.651  1.00  0.00     0.150 C 
ATOM     21  C   UNL     1      17.304  65.953  18.229  1.00  0.00     0.068 C 
ATOM     22  C   UNL     1      18.818  65.953  18.100  1.00  0.00     0.148 C 
ATOM     23  C   UNL     1      19.384  67.352  18.431  1.00  0.00     0.168 C 
BRANCH  20  24
ATOM     24  C   UNL     1      15.485  66.972  19.674  1.00  0.00     0.196 C 
BRANCH  24  25
ATOM     25  O   UNL     1      15.139  67.443  18.373  1.00  0.00    -0.398 OA
ATOM     26  H   UNL     1      15.260  68.414  18.393  1.00  0.00     0.209 HD
ENDBRANCH  24  25
ENDBRANCH  20  24
BRANCH  22  27
ATOM     27  O   UNL     1      19.341  64.949  18.976  1.00  0.00    -0.393 OA
ATOM     28  H   UNL     1      18.750  64.178  18.882  1.00  0.00     0.210 HD
ENDBRANCH  22  27
BRANCH  23  29
ATOM     29  N   UNL     1      20.804  67.279  18.808  1.00  0.00    -0.349 N 
ATOM     30  C   UNL     1      21.776  67.647  17.906  1.00  0.00     0.218 C 
ATOM     31  O   UNL     1      21.527  67.831  16.718  1.00  0.00    -0.274 OA
ATOM     32  H   UNL     1      21.016  67.245  19.805  1.00  0.00     0.163 HD
BRANCH  30  33
ATOM     33  C   UNL     1      23.159  67.811  18.497  1.00  0.00     0.113 C 
BRANCH  33  34
ATOM     34  C   UNL     1      23.448  69.287  18.758  1.00  0.00     0.119 C 
BRANCH  34  35
ATOM     35  C   UNL     1      23.506  69.593  20.227  1.00  0.00     0.139 C 
ATOM     36  O   UNL     1      23.735  68.817  21.135  1.00  0.00    -0.650 OA
BRANCH  35  37
ATOM     37  O   UNL     1      23.243  70.891  20.479  1.00  0.00    -0.776 OA
ATOM     38  H   UNL     1      22.395  70.878  20.969  1.00  0.00     0.167 HD
ENDBRANCH  35  37
ENDBRANCH  34  35
ENDBRANCH  33  34
ENDBRANCH  30  33
ENDBRANCH  23  29
ENDBRANCH  17  18
ENDBRANCH  11  17
BRANCH  12  39
ATOM     39  O   UNL     1      19.430  71.193  21.840  1.00  0.00    -0.391 OA
ATOM     40  H   UNL     1      20.379  70.964  21.843  1.00  0.00     0.210 HD
ENDBRANCH  12  39
BRANCH  13  41
ATOM     41  N   UNL     1      18.540  71.368  24.432  1.00  0.00    -0.349 N 
ATOM     42  C   UNL     1      17.297  71.747  24.870  1.00  0.00     0.218 C 
ATOM     43  O   UNL     1      16.299  71.053  24.696  1.00  0.00    -0.274 OA
ATOM     44  H   UNL     1      19.347  71.924  24.704  1.00  0.00     0.163 HD
BRANCH  42  45
ATOM     45  C   UNL     1      17.287  73.107  25.524  1.00  0.00     0.113 C 
BRANCH  45  46
ATOM     46  C   UNL     1      17.067  73.009  27.025  1.00  0.00     0.119 C 
BRANCH  46  47
ATOM     47  C   UNL     1      18.379  73.011  27.755  1.00  0.00     0.139 C 
ATOM     48  O   UNL     1      18.678  73.666  28.738  1.00  0.00    -0.650 OA
BRANCH  47  49
ATOM     49  O   UNL     1      19.260  72.145  27.216  1.00  0.00    -0.776 OA
ATOM     50  H   UNL     1      19.923  72.006  27.923  1.00  0.00     0.167 HD
ENDBRANCH  47  49
ENDBRANCH  46  47
ENDBRANCH  45  46
ENDBRANCH  42  45
ENDBRANCH  13  41
ENDBRANCH   7   8
ENDBRANCH   1   7
BRANCH   2  51
ATOM     51  C   UNL     1      24.210  70.635  24.387  1.00  0.00     0.198 C 
BRANCH  51  52
ATOM     52  O   UNL     1      23.954  69.336  23.863  1.00  0.00    -0.398 OA
ATOM     53  H   UNL     1      23.653  68.768  24.598  1.00  0.00     0.209 HD
ENDBRANCH  51  52
ENDBRANCH   2  51
BRANCH   3  54
ATOM     54  O   UNL     1      21.548  70.471  28.011  1.00  0.00    -0.391 OA
ATOM     55  H   UNL     1      21.029  71.060  27.429  1.00  0.00     0.210 HD
ENDBRANCH   3  54
BRANCH   4  56
ATOM     56  N   UNL     1      23.596  68.653  29.000  1.00  0.00     0.090 N 
ATOM     57  H   UNL     1      24.299  67.935  29.117  1.00  0.00     0.313 HD
ATOM     58  H   UNL     1      23.847  69.411  29.644  1.00  0.00     0.313 HD
ENDBRANCH   4  56
BRANCH   5  59
ATOM     59  O   UNL     1      24.828  71.110  28.670  1.00  0.00    -0.348 OA
BRANCH  59  60
ATOM     60  C   UNL     1      26.233  71.362  28.860  1.00  0.00     0.186 C 
ATOM     61  C   UNL     1      26.528  72.026  30.230  1.00  0.00     0.179 C 
ATOM     62  O   UNL     1      27.522  71.351  31.029  1.00  0.00    -0.349 OA
ATOM     63  C   UNL     1      28.721  70.928  30.374  1.00  0.00     0.281 C 
ATOM     64  C   UNL     1      28.465  70.280  28.984  1.00  0.00     0.149 C 
ATOM     65  C   UNL     1      26.971  70.017  28.731  1.00  0.00     0.172 C 
BRANCH  61  66
ATOM     66  C   UNL     1      26.957  73.494  30.067  1.00  0.00     0.198 C 
BRANCH  66  67
ATOM     67  O   UNL     1      27.189  73.801  28.697  1.00  0.00    -0.398 OA
ATOM     68  H   UNL     1      27.443  72.974  28.243  1.00  0.00     0.209 HD
ENDBRANCH  66  67
ENDBRANCH  61  66
BRANCH  63  69
ATOM     69  O   UNL     1      29.412  70.044  31.251  1.00  0.00    -0.349 OA
BRANCH  69  70
ATOM     70  C   UNL     1      30.561  70.584  31.914  1.00  0.00     0.186 C 
ATOM     71  C   UNL     1      31.137  69.598  32.959  1.00  0.00     0.176 C 
ATOM     72  O   UNL     1      32.588  69.619  32.998  1.00  0.00    -0.379 OA
ATOM     73  C   UNL     1      33.146  70.934  32.893  1.00  0.00     0.196 C 
ATOM     74  C   UNL     1      32.859  71.560  31.516  1.00  0.00     0.139 C 
ATOM     75  C   UNL     1      31.644  70.885  30.851  1.00  0.00     0.174 C 
BRANCH  71  76
ATOM     76  C   UNL     1      30.612  69.844  34.381  1.00  0.00     0.198 C 
BRANCH  76  77
ATOM     77  O   UNL     1      29.651  70.897  34.370  1.00  0.00    -0.398 OA
ATOM     78  H   UNL     1      30.150  71.727  34.233  1.00  0.00     0.209 HD
ENDBRANCH  76  77
ENDBRANCH  71  76
BRANCH  74  79
ATOM     79  N   UNL     1      34.026  71.466  30.640  1.00  0.00    -0.352 N 
ATOM     80  C   UNL     1      34.990  72.445  30.582  1.00  0.00     0.218 C 
ATOM     81  O   UNL     1      34.987  73.434  31.306  1.00  0.00    -0.274 OA
ATOM     82  H   UNL     1      33.956  70.803  29.873  1.00  0.00     0.163 HD
BRANCH  80  83
ATOM     83  C   UNL     1      36.070  72.152  29.565  1.00  0.00     0.113 C 
BRANCH  83  84
ATOM     84  C   UNL     1      35.789  72.827  28.230  1.00  0.00     0.119 C 
BRANCH  84  85
ATOM     85  C   UNL     1      34.932  71.957  27.359  1.00  0.00     0.139 C 
ATOM     86  O   UNL     1      34.577  70.812  27.582  1.00  0.00    -0.650 OA
BRANCH  85  87
ATOM     87  O   UNL     1      34.562  72.582  26.225  1.00  0.00    -0.776 OA
ATOM     88  H   UNL     1      33.584  72.528  26.226  1.00  0.00     0.167 HD
ENDBRANCH  85  87
ENDBRANCH  84  85
ENDBRANCH  83  84
ENDBRANCH  80  83
ENDBRANCH  74  79
BRANCH  75  89
ATOM     89  O   UNL     1      32.075  69.689  30.168  1.00  0.00    -0.391 OA
ATOM     90  H   UNL     1      32.984  69.835  29.847  1.00  0.00     0.210 HD
ENDBRANCH  75  89
ENDBRANCH  69  70
ENDBRANCH  63  69
BRANCH  64  91
ATOM     91  N   UNL     1      29.389  69.240  28.496  1.00  0.00    -0.251 NA
ATOM     92  C   UNL     1      30.048  69.336  27.300  1.00  0.00     0.198 C 
ATOM     93  O   UNL     1      31.275  69.444  27.347  1.00  0.00    -0.280 OA
ATOM     94  H   UNL     1      30.131  69.099  29.174  1.00  0.00     0.131 HD
BRANCH  92  95
ATOM     95  C   UNL     1      29.307  69.144  26.002  1.00  0.00     0.107 C 
BRANCH  95  96
ATOM     96  C   UNL     1      28.706  67.739  26.035  1.00  0.00     0.118 C 
BRANCH  96  97
ATOM     97  C   UNL     1      27.354  67.658  25.398  1.00  0.00     0.139 C 
ATOM     98  O   UNL     1      26.608  68.578  25.108  1.00  0.00    -0.650 OA
BRANCH  97  99
ATOM     99  O   UNL     1      27.030  66.388  25.073  1.00  0.00    -0.776 OA
ATOM    100  H   UNL     1      26.094  66.305  25.347  1.00  0.00     0.167 HD
ENDBRANCH  97  99
ENDBRANCH  96  97
ENDBRANCH  95  96
ENDBRANCH  92  95
ENDBRANCH  64  91
BRANCH  65 101
ATOM    101  O   UNL     1      26.438  69.044  29.627  1.00  0.00    -0.391 OA
ATOM    102  H   UNL     1      26.522  69.414  30.528  1.00  0.00     0.210 HD
ENDBRANCH  65 101
ENDBRANCH  59  60
ENDBRANCH   5  59
TORSDOF 44
ENDMDL
MODEL 4
REMARK VINA RESULT:      -7.0      2.689      6.250
REMARK WARNING: 32 MAX_TORS EXCEEDED!!!
REMARK  44 active torsions:
REMARK  status: ('A' for Active; 'I' for Inactive)
REMARK    1  A    between atoms: C_1  and  O_44 
REMARK    2  A    between atoms: C_2  and  C_6 
REMARK    3  A    between atoms: C_3  and  O_10 
REMARK    4  A    between atoms: C_4  and  N_12 
REMARK    5  A    between atoms: C_5  and  O_14 
REMARK    6  A    between atoms: C_6  and  O_7 
REMARK    7  A    between atoms: O_14  and  C_27 
REMARK    8  A    between atoms: O_16  and  C_21 
REMARK    9  A    between atoms: C_18  and  C_33 
REMARK   10  A    between atoms: O_20  and  C_33 
REMARK   11  A    between atoms: O_22  and  C_30 
REMARK   12  A    between atoms: O_22  and  C_70 
REMARK   13  A    between atoms: O_23  and  C_24 
REMARK   14  A    between atoms: C_24  and  C_28 
REMARK   15  A    between atoms: C_28  and  C_31 
REMARK       I    between atoms: N_29  and  C_32 
REMARK   16  A    between atoms: N_29  and  C_35 
REMARK   17  A    between atoms: C_31  and  C_32 
REMARK   18  A    between atoms: O_38  and  C_43 
REMARK   19  A    between atoms: C_40  and  C_55 
REMARK   20  A    between atoms: O_42  and  C_55 
REMARK   21  A    between atoms: O_44  and  C_52 
REMARK   22  A    between atoms: O_45  and  C_46 
REMARK   23  A    between atoms: C_46  and  C_50 
REMARK   24  A    between atoms: C_49  and  O_87 
REMARK   25  A    between atoms: C_50  and  C_53 
REMARK       I    between atoms: N_51  and  C_54 
REMARK   26  A    between atoms: N_51  and  C_57 
REMARK   27  A    between atoms: C_53  and  C_54 
REMARK   28  A    between atoms: O_60  and  C_65 
REMARK   29  A    between atoms: C_62  and  C_76 
REMARK   30  A    between atoms: O_64  and  C_76 
REMARK   31  A    between atoms: O_66  and  C_67 
REMARK   32  A    between atoms: C_67  and  C_71 
REMARK   33  A    between atoms: C_71  and  C_74 
REMARK       I    between atoms: N_72  and  C_75 
REMARK   34  A    between atoms: N_72  and  C_78 
REMARK   35  A    between atoms: C_74  and  C_75 
REMARK   36  A    between atoms: O_81  and  C_86 
REMARK   37  A    between atoms: C_83  and  C_98 
REMARK   38  A    between atoms: O_85  and  C_98 
REMARK   39  A    between atoms: O_87  and  C_95 
REMARK   40  A    between atoms: O_88  and  C_89 
REMARK   41  A    between atoms: C_89  and  C_93 
REMARK   42  A    between atoms: C_93  and  C_96 
REMARK       I    between atoms: N_94  and  C_97 
REMARK   43  A    between atoms: N_94  and  C_100 
REMARK   44  A    between atoms: C_96  and  C_97 
ROOT
ATOM      1  C   UNL     1      19.274  68.436  21.796  1.00  0.00     0.186 C 
ATOM      2  C   UNL     1      20.598  67.828  22.308  1.00  0.00     0.179 C 
ATOM      3  C   UNL     1      19.021  69.807  22.452  1.00  0.00     0.187 C 
ATOM      4  C   UNL     1      19.143  69.672  23.984  1.00  0.00     0.303 C 
ATOM      5  C   UNL     1      20.570  69.140  24.365  1.00  0.00     0.296 C 
ATOM      6  O   UNL     1      21.306  68.698  23.218  1.00  0.00    -0.349 OA
ENDROOT
BRANCH   1   7
ATOM      7  O   UNL     1      19.327  68.602  20.370  1.00  0.00    -0.348 OA
BRANCH   7   8
ATOM      8  C   UNL     1      18.560  67.662  19.609  1.00  0.00     0.286 C 
ATOM      9  O   UNL     1      18.012  66.723  20.540  1.00  0.00    -0.349 OA
ATOM     10  C   UNL     1      17.173  65.709  19.957  1.00  0.00     0.180 C 
ATOM     11  C   UNL     1      17.843  64.961  18.782  1.00  0.00     0.186 C 
ATOM     12  C   UNL     1      19.301  65.416  18.620  1.00  0.00     0.177 C 
ATOM     13  C   UNL     1      19.436  66.943  18.537  1.00  0.00     0.170 C 
BRANCH  10  14
ATOM     14  C   UNL     1      15.810  66.297  19.560  1.00  0.00     0.198 C 
BRANCH  14  15
ATOM     15  O   UNL     1      15.576  66.160  18.161  1.00  0.00    -0.398 OA
ATOM     16  H   UNL     1      14.677  65.799  18.038  1.00  0.00     0.209 HD
ENDBRANCH  14  15
ENDBRANCH  10  14
BRANCH  11  17
ATOM     17  O   UNL     1      17.840  63.560  19.095  1.00  0.00    -0.348 OA
BRANCH  17  18
ATOM     18  C   UNL     1      16.573  62.959  19.373  1.00  0.00     0.286 C 
ATOM     19  O   UNL     1      16.831  61.796  20.151  1.00  0.00    -0.352 OA
ATOM     20  C   UNL     1      15.653  61.116  20.622  1.00  0.00     0.150 C 
ATOM     21  C   UNL     1      14.455  61.224  19.673  1.00  0.00     0.068 C 
ATOM     22  C   UNL     1      14.918  61.356  18.232  1.00  0.00     0.148 C 
ATOM     23  C   UNL     1      15.797  62.615  18.064  1.00  0.00     0.168 C 
BRANCH  20  24
ATOM     24  C   UNL     1      15.311  61.633  22.026  1.00  0.00     0.196 C 
BRANCH  24  25
ATOM     25  O   UNL     1      16.507  61.924  22.747  1.00  0.00    -0.398 OA
ATOM     26  H   UNL     1      16.686  61.141  23.306  1.00  0.00     0.209 HD
ENDBRANCH  24  25
ENDBRANCH  20  24
BRANCH  22  27
ATOM     27  O   UNL     1      15.627  60.163  17.880  1.00  0.00    -0.393 OA
ATOM     28  H   UNL     1      14.966  59.566  17.482  1.00  0.00     0.210 HD
ENDBRANCH  22  27
BRANCH  23  29
ATOM     29  N   UNL     1      16.652  62.515  16.872  1.00  0.00    -0.349 N 
ATOM     30  C   UNL     1      16.521  63.427  15.850  1.00  0.00     0.218 C 
ATOM     31  O   UNL     1      15.569  64.200  15.787  1.00  0.00    -0.274 OA
ATOM     32  H   UNL     1      17.507  61.966  16.962  1.00  0.00     0.163 HD
BRANCH  30  33
ATOM     33  C   UNL     1      17.636  63.402  14.830  1.00  0.00     0.113 C 
BRANCH  33  34
ATOM     34  C   UNL     1      17.233  62.546  13.631  1.00  0.00     0.119 C 
BRANCH  34  35
ATOM     35  C   UNL     1      17.228  63.339  12.356  1.00  0.00     0.139 C 
ATOM     36  O   UNL     1      18.014  63.256  11.432  1.00  0.00    -0.650 OA
BRANCH  35  37
ATOM     37  O   UNL     1      16.219  64.232  12.325  1.00  0.00    -0.776 OA
ATOM     38  H   UNL     1      16.427  64.862  13.047  1.00  0.00     0.167 HD
ENDBRANCH  35  37
ENDBRANCH  34  35
ENDBRANCH  33  34
ENDBRANCH  30  33
ENDBRANCH  23  29
ENDBRANCH  17  18
ENDBRANCH  11  17
BRANCH  12  39
ATOM     39  O   UNL     1      20.127  64.891  19.677  1.00  0.00    -0.391 OA
ATOM     40  H   UNL     1      20.554  65.648  20.123  1.00  0.00     0.210 HD
ENDBRANCH  12  39
BRANCH  13  41
ATOM     41  N   UNL     1      20.852  67.301  18.578  1.00  0.00    -0.349 N 
ATOM     42  C   UNL     1      21.481  67.937  17.538  1.00  0.00     0.218 C 
ATOM     43  O   UNL     1      20.945  68.098  16.445  1.00  0.00    -0.274 OA
ATOM     44  H   UNL     1      21.297  67.297  19.492  1.00  0.00     0.163 HD
BRANCH  42  45
ATOM     45  C   UNL     1      22.895  68.354  17.865  1.00  0.00     0.113 C 
BRANCH  45  46
ATOM     46  C   UNL     1      23.357  67.782  19.196  1.00  0.00     0.119 C 
BRANCH  46  47
ATOM     47  C   UNL     1      23.307  68.830  20.269  1.00  0.00     0.139 C 
ATOM     48  O   UNL     1      24.141  69.047  21.131  1.00  0.00    -0.650 OA
BRANCH  47  49
ATOM     49  O   UNL     1      22.197  69.589  20.185  1.00  0.00    -0.776 OA
ATOM     50  H   UNL     1      22.538  70.503  20.093  1.00  0.00     0.167 HD
ENDBRANCH  47  49
ENDBRANCH  46  47
ENDBRANCH  45  46
ENDBRANCH  42  45
ENDBRANCH  13  41
ENDBRANCH   7   8
ENDBRANCH   1   7
BRANCH   2  51
ATOM     51  C   UNL     1      20.374  66.451  22.957  1.00  0.00     0.198 C 
BRANCH  51  52
ATOM     52  O   UNL     1      18.985  66.190  23.125  1.00  0.00    -0.398 OA
ATOM     53  H   UNL     1      18.649  66.780  23.827  1.00  0.00     0.209 HD
ENDBRANCH  51  52
ENDBRANCH   2  51
BRANCH   3  54
ATOM     54  O   UNL     1      19.924  70.818  21.968  1.00  0.00    -0.391 OA
ATOM     55  H   UNL     1      20.832  70.468  22.056  1.00  0.00     0.210 HD
ENDBRANCH   3  54
BRANCH   4  56
ATOM     56  N   UNL     1      18.720  70.934  24.617  1.00  0.00     0.090 N 
ATOM     57  H   UNL     1      17.729  70.935  24.822  1.00  0.00     0.313 HD
ATOM     58  H   UNL     1      19.203  71.001  25.520  1.00  0.00     0.313 HD
ENDBRANCH   4  56
BRANCH   5  59
ATOM     59  O   UNL     1      21.355  70.173  24.990  1.00  0.00    -0.348 OA
BRANCH  59  60
ATOM     60  C   UNL     1      22.717  69.808  25.286  1.00  0.00     0.186 C 
ATOM     61  C   UNL     1      23.680  71.020  25.198  1.00  0.00     0.179 C 
ATOM     62  O   UNL     1      24.495  71.233  26.370  1.00  0.00    -0.349 OA
ATOM     63  C   UNL     1      25.130  70.090  26.950  1.00  0.00     0.281 C 
ATOM     64  C   UNL     1      24.201  68.846  27.030  1.00  0.00     0.149 C 
ATOM     65  C   UNL     1      22.739  69.189  26.696  1.00  0.00     0.172 C 
BRANCH  61  66
ATOM     66  C   UNL     1      24.609  70.917  23.977  1.00  0.00     0.198 C 
BRANCH  66  67
ATOM     67  O   UNL     1      24.917  69.557  23.692  1.00  0.00    -0.398 OA
ATOM     68  H   UNL     1      24.257  69.228  23.052  1.00  0.00     0.209 HD
ENDBRANCH  66  67
ENDBRANCH  61  66
BRANCH  63  69
ATOM     69  O   UNL     1      25.625  70.465  28.231  1.00  0.00    -0.349 OA
BRANCH  69  70
ATOM     70  C   UNL     1      26.744  71.359  28.239  1.00  0.00     0.186 C 
ATOM     71  C   UNL     1      26.768  72.239  29.513  1.00  0.00     0.176 C 
ATOM     72  O   UNL     1      28.114  72.455  30.010  1.00  0.00    -0.379 OA
ATOM     73  C   UNL     1      29.077  72.692  28.976  1.00  0.00     0.196 C 
ATOM     74  C   UNL     1      29.266  71.450  28.086  1.00  0.00     0.139 C 
ATOM     75  C   UNL     1      28.041  70.518  28.180  1.00  0.00     0.174 C 
BRANCH  71  76
ATOM     76  C   UNL     1      26.099  73.607  29.319  1.00  0.00     0.198 C 
BRANCH  76  77
ATOM     77  O   UNL     1      25.328  73.607  28.120  1.00  0.00    -0.398 OA
ATOM     78  H   UNL     1      25.449  72.727  27.711  1.00  0.00     0.209 HD
ENDBRANCH  76  77
ENDBRANCH  71  76
BRANCH  74  79
ATOM     79  N   UNL     1      30.479  70.720  28.450  1.00  0.00    -0.352 N 
ATOM     80  C   UNL     1      31.472  70.434  27.542  1.00  0.00     0.218 C 
ATOM     81  O   UNL     1      31.454  70.827  26.382  1.00  0.00    -0.274 OA
ATOM     82  H   UNL     1      30.436  70.183  29.312  1.00  0.00     0.163 HD
BRANCH  80  83
ATOM     83  C   UNL     1      32.602  69.624  28.137  1.00  0.00     0.113 C 
BRANCH  83  84
ATOM     84  C   UNL     1      33.962  70.232  27.821  1.00  0.00     0.119 C 
BRANCH  84  85
ATOM     85  C   UNL     1      34.439  71.097  28.950  1.00  0.00     0.139 C 
ATOM     86  O   UNL     1      35.183  70.776  29.861  1.00  0.00    -0.650 OA
BRANCH  85  87
ATOM     87  O   UNL     1      33.941  72.345  28.878  1.00  0.00    -0.776 OA
ATOM     88  H   UNL     1      34.167  72.646  27.973  1.00  0.00     0.167 HD
ENDBRANCH  85  87
ENDBRANCH  84  85
ENDBRANCH  83  84
ENDBRANCH  80  83
ENDBRANCH  74  79
BRANCH  75  89
ATOM     89  O   UNL     1      28.180  69.660  29.331  1.00  0.00    -0.391 OA
ATOM     90  H   UNL     1      29.111  69.688  29.618  1.00  0.00     0.210 HD
ENDBRANCH  75  89
ENDBRANCH  69  70
ENDBRANCH  63  69
BRANCH  64  91
ATOM     91  N   UNL     1      24.396  67.875  28.121  1.00  0.00    -0.251 NA
ATOM     92  C   UNL     1      25.557  67.168  28.286  1.00  0.00     0.198 C 
ATOM     93  O   UNL     1      26.218  67.410  29.298  1.00  0.00    -0.280 OA
ATOM     94  H   UNL     1      24.261  68.335  29.015  1.00  0.00     0.131 HD
BRANCH  92  95
ATOM     95  C   UNL     1      25.903  66.037  27.353  1.00  0.00     0.107 C 
BRANCH  95  96
ATOM     96  C   UNL     1      27.392  66.168  27.027  1.00  0.00     0.118 C 
BRANCH  96  97
ATOM     97  C   UNL     1      27.654  66.785  25.689  1.00  0.00     0.139 C 
ATOM     98  O   UNL     1      28.720  66.871  25.102  1.00  0.00    -0.650 OA
BRANCH  97  99
ATOM     99  O   UNL     1      26.514  67.207  25.101  1.00  0.00    -0.776 OA
ATOM    100  H   UNL     1      25.839  67.119  25.804  1.00  0.00     0.167 HD
ENDBRANCH  97  99
ENDBRANCH  96  97
ENDBRANCH  95  96
ENDBRANCH  92  95
ENDBRANCH  64  91
BRANCH  65 101
ATOM    101  O   UNL     1      22.161  70.069  27.658  1.00  0.00    -0.391 OA
ATOM    102  H   UNL     1      21.203  70.105  27.468  1.00  0.00     0.210 HD
ENDBRANCH  65 101
ENDBRANCH  59  60
ENDBRANCH   5  59
TORSDOF 44
ENDMDL
MODEL 5
REMARK VINA RESULT:      -7.0      2.469     14.817
REMARK WARNING: 32 MAX_TORS EXCEEDED!!!
REMARK  44 active torsions:
REMARK  status: ('A' for Active; 'I' for Inactive)
REMARK    1  A    between atoms: C_1  and  O_44 
REMARK    2  A    between atoms: C_2  and  C_6 
REMARK    3  A    between atoms: C_3  and  O_10 
REMARK    4  A    between atoms: C_4  and  N_12 
REMARK    5  A    between atoms: C_5  and  O_14 
REMARK    6  A    between atoms: C_6  and  O_7 
REMARK    7  A    between atoms: O_14  and  C_27 
REMARK    8  A    between atoms: O_16  and  C_21 
REMARK    9  A    between atoms: C_18  and  C_33 
REMARK   10  A    between atoms: O_20  and  C_33 
REMARK   11  A    between atoms: O_22  and  C_30 
REMARK   12  A    between atoms: O_22  and  C_70 
REMARK   13  A    between atoms: O_23  and  C_24 
REMARK   14  A    between atoms: C_24  and  C_28 
REMARK   15  A    between atoms: C_28  and  C_31 
REMARK       I    between atoms: N_29  and  C_32 
REMARK   16  A    between atoms: N_29  and  C_35 
REMARK   17  A    between atoms: C_31  and  C_32 
REMARK   18  A    between atoms: O_38  and  C_43 
REMARK   19  A    between atoms: C_40  and  C_55 
REMARK   20  A    between atoms: O_42  and  C_55 
REMARK   21  A    between atoms: O_44  and  C_52 
REMARK   22  A    between atoms: O_45  and  C_46 
REMARK   23  A    between atoms: C_46  and  C_50 
REMARK   24  A    between atoms: C_49  and  O_87 
REMARK   25  A    between atoms: C_50  and  C_53 
REMARK       I    between atoms: N_51  and  C_54 
REMARK   26  A    between atoms: N_51  and  C_57 
REMARK   27  A    between atoms: C_53  and  C_54 
REMARK   28  A    between atoms: O_60  and  C_65 
REMARK   29  A    between atoms: C_62  and  C_76 
REMARK   30  A    between atoms: O_64  and  C_76 
REMARK   31  A    between atoms: O_66  and  C_67 
REMARK   32  A    between atoms: C_67  and  C_71 
REMARK   33  A    between atoms: C_71  and  C_74 
REMARK       I    between atoms: N_72  and  C_75 
REMARK   34  A    between atoms: N_72  and  C_78 
REMARK   35  A    between atoms: C_74  and  C_75 
REMARK   36  A    between atoms: O_81  and  C_86 
REMARK   37  A    between atoms: C_83  and  C_98 
REMARK   38  A    between atoms: O_85  and  C_98 
REMARK   39  A    between atoms: O_87  and  C_95 
REMARK   40  A    between atoms: O_88  and  C_89 
REMARK   41  A    between atoms: C_89  and  C_93 
REMARK   42  A    between atoms: C_93  and  C_96 
REMARK       I    between atoms: N_94  and  C_97 
REMARK   43  A    between atoms: N_94  and  C_100 
REMARK   44  A    between atoms: C_96  and  C_97 
ROOT
ATOM      1  C   UNL     1      29.416  68.360  27.634  1.00  0.00     0.186 C 
ATOM      2  C   UNL     1      28.243  67.357  27.713  1.00  0.00     0.179 C 
ATOM      3  C   UNL     1      28.897  69.772  27.300  1.00  0.00     0.187 C 
ATOM      4  C   UNL     1      27.995  69.704  26.051  1.00  0.00     0.303 C 
ATOM      5  C   UNL     1      26.792  68.728  26.309  1.00  0.00     0.296 C 
ATOM      6  O   UNL     1      26.954  67.979  27.519  1.00  0.00    -0.349 OA
ENDROOT
BRANCH   1   7
ATOM      7  O   UNL     1      30.112  68.401  28.889  1.00  0.00    -0.348 OA
BRANCH   7   8
ATOM      8  C   UNL     1      31.074  69.453  29.029  1.00  0.00     0.286 C 
ATOM      9  O   UNL     1      32.337  68.918  28.619  1.00  0.00    -0.349 OA
ATOM     10  C   UNL     1      33.433  69.849  28.658  1.00  0.00     0.180 C 
ATOM     11  C   UNL     1      33.579  70.566  30.020  1.00  0.00     0.186 C 
ATOM     12  C   UNL     1      32.576  69.996  31.035  1.00  0.00     0.177 C 
ATOM     13  C   UNL     1      31.139  69.979  30.496  1.00  0.00     0.170 C 
BRANCH  10  14
ATOM     14  C   UNL     1      33.340  70.846  27.493  1.00  0.00     0.198 C 
BRANCH  14  15
ATOM     15  O   UNL     1      34.627  71.335  27.126  1.00  0.00    -0.398 OA
ATOM     16  H   UNL     1      34.513  71.966  26.389  1.00  0.00     0.209 HD
ENDBRANCH  14  15
ENDBRANCH  10  14
BRANCH  11  17
ATOM     17  O   UNL     1      34.906  70.316  30.509  1.00  0.00    -0.348 OA
BRANCH  17  18
ATOM     18  C   UNL     1      35.852  71.380  30.393  1.00  0.00     0.286 C 
ATOM     19  O   UNL     1      35.198  72.439  29.704  1.00  0.00    -0.352 OA
ATOM     20  C   UNL     1      35.970  73.649  29.591  1.00  0.00     0.150 C 
ATOM     21  C   UNL     1      37.481  73.413  29.495  1.00  0.00     0.068 C 
ATOM     22  C   UNL     1      37.776  72.076  28.835  1.00  0.00     0.148 C 
ATOM     23  C   UNL     1      37.146  70.925  29.649  1.00  0.00     0.168 C 
BRANCH  20  24
ATOM     24  C   UNL     1      35.616  74.573  30.764  1.00  0.00     0.196 C 
BRANCH  24  25
ATOM     25  O   UNL     1      34.201  74.705  30.877  1.00  0.00    -0.398 OA
ATOM     26  H   UNL     1      33.888  73.906  31.346  1.00  0.00     0.209 HD
ENDBRANCH  24  25
ENDBRANCH  20  24
BRANCH  22  27
ATOM     27  O   UNL     1      37.270  72.118  27.497  1.00  0.00    -0.393 OA
ATOM     28  H   UNL     1      37.323  73.052  27.219  1.00  0.00     0.210 HD
ENDBRANCH  22  27
BRANCH  23  29
ATOM     29  N   UNL     1      36.967  69.721  28.824  1.00  0.00    -0.349 N 
ATOM     30  C   UNL     1      37.933  68.741  28.816  1.00  0.00     0.218 C 
ATOM     31  O   UNL     1      39.047  68.920  29.302  1.00  0.00    -0.274 OA
ATOM     32  H   UNL     1      36.018  69.507  28.518  1.00  0.00     0.163 HD
BRANCH  30  33
ATOM     33  C   UNL     1      37.510  67.439  28.174  1.00  0.00     0.113 C 
BRANCH  33  34
ATOM     34  C   UNL     1      35.993  67.283  28.251  1.00  0.00     0.119 C 
BRANCH  34  35
ATOM     35  C   UNL     1      35.567  66.588  29.512  1.00  0.00     0.139 C 
ATOM     36  O   UNL     1      35.413  65.393  29.682  1.00  0.00    -0.650 OA
BRANCH  35  37
ATOM     37  O   UNL     1      35.331  67.462  30.511  1.00  0.00    -0.776 OA
ATOM     38  H   UNL     1      34.359  67.441  30.630  1.00  0.00     0.167 HD
ENDBRANCH  35  37
ENDBRANCH  34  35
ENDBRANCH  33  34
ENDBRANCH  30  33
ENDBRANCH  23  29
ENDBRANCH  17  18
ENDBRANCH  11  17
BRANCH  12  39
ATOM     39  O   UNL     1      32.970  68.680  31.468  1.00  0.00    -0.391 OA
ATOM     40  H   UNL     1      32.720  68.591  32.408  1.00  0.00     0.210 HD
ENDBRANCH  12  39
BRANCH  13  41
ATOM     41  N   UNL     1      30.284  69.254  31.433  1.00  0.00    -0.349 N 
ATOM     42  C   UNL     1      28.997  69.640  31.707  1.00  0.00     0.218 C 
ATOM     43  O   UNL     1      28.533  70.707  31.315  1.00  0.00    -0.274 OA
ATOM     44  H   UNL     1      30.578  68.313  31.684  1.00  0.00     0.163 HD
BRANCH  42  45
ATOM     45  C   UNL     1      28.253  68.654  32.574  1.00  0.00     0.113 C 
BRANCH  45  46
ATOM     46  C   UNL     1      27.586  67.567  31.745  1.00  0.00     0.119 C 
BRANCH  46  47
ATOM     47  C   UNL     1      28.400  66.306  31.771  1.00  0.00     0.139 C 
ATOM     48  O   UNL     1      28.216  65.321  32.466  1.00  0.00    -0.650 OA
BRANCH  47  49
ATOM     49  O   UNL     1      29.410  66.335  30.879  1.00  0.00    -0.776 OA
ATOM     50  H   UNL     1      29.416  67.260  30.554  1.00  0.00     0.167 HD
ENDBRANCH  47  49
ENDBRANCH  46  47
ENDBRANCH  45  46
ENDBRANCH  42  45
ENDBRANCH  13  41
ENDBRANCH   7   8
ENDBRANCH   1   7
BRANCH   2  51
ATOM     51  C   UNL     1      28.426  66.196  26.721  1.00  0.00     0.198 C 
BRANCH  51  52
ATOM     52  O   UNL     1      29.493  65.345  27.126  1.00  0.00    -0.398 OA
ATOM     53  H   UNL     1      29.194  64.420  27.032  1.00  0.00     0.209 HD
ENDBRANCH  51  52
ENDBRANCH   2  51
BRANCH   3  54
ATOM     54  O   UNL     1      28.181  70.363  28.400  1.00  0.00    -0.391 OA
ATOM     55  H   UNL     1      28.189  69.720  29.136  1.00  0.00     0.210 HD
ENDBRANCH   3  54
BRANCH   4  56
ATOM     56  N   UNL     1      27.651  71.073  25.626  1.00  0.00     0.090 N 
ATOM     57  H   UNL     1      28.077  71.767  26.227  1.00  0.00     0.313 HD
ATOM     58  H   UNL     1      28.052  71.214  24.692  1.00  0.00     0.313 HD
ENDBRANCH   4  56
BRANCH   5  59
ATOM     59  O   UNL     1      25.554  69.455  26.431  1.00  0.00    -0.348 OA
BRANCH  59  60
ATOM     60  C   UNL     1      24.491  68.995  25.576  1.00  0.00     0.186 C 
ATOM     61  C   UNL     1      23.195  68.683  26.369  1.00  0.00     0.179 C 
ATOM     62  O   UNL     1      22.010  69.343  25.878  1.00  0.00    -0.349 OA
ATOM     63  C   UNL     1      21.784  69.330  24.465  1.00  0.00     0.281 C 
ATOM     64  C   UNL     1      23.069  69.613  23.636  1.00  0.00     0.149 C 
ATOM     65  C   UNL     1      24.238  70.084  24.517  1.00  0.00     0.172 C 
BRANCH  61  66
ATOM     66  C   UNL     1      22.917  67.172  26.428  1.00  0.00     0.198 C 
BRANCH  66  67
ATOM     67  O   UNL     1      24.096  66.456  26.777  1.00  0.00    -0.398 OA
ATOM     68  H   UNL     1      24.501  66.902  27.546  1.00  0.00     0.209 HD
ENDBRANCH  66  67
ENDBRANCH  61  66
BRANCH  63  69
ATOM     69  O   UNL     1      20.751  70.266  24.177  1.00  0.00    -0.349 OA
BRANCH  69  70
ATOM     70  C   UNL     1      19.409  69.776  24.277  1.00  0.00     0.186 C 
ATOM     71  C   UNL     1      18.375  70.833  23.819  1.00  0.00     0.176 C 
ATOM     72  O   UNL     1      17.267  70.243  23.092  1.00  0.00    -0.379 OA
ATOM     73  C   UNL     1      16.805  69.007  23.650  1.00  0.00     0.196 C 
ATOM     74  C   UNL     1      17.874  67.906  23.542  1.00  0.00     0.139 C 
ATOM     75  C   UNL     1      19.279  68.520  23.383  1.00  0.00     0.174 C 
BRANCH  71  76
ATOM     76  C   UNL     1      17.804  71.666  24.976  1.00  0.00     0.198 C 
BRANCH  76  77
ATOM     77  O   UNL     1      18.647  71.551  26.121  1.00  0.00    -0.398 OA
ATOM     78  H   UNL     1      18.539  72.379  26.629  1.00  0.00     0.209 HD
ENDBRANCH  76  77
ENDBRANCH  71  76
BRANCH  74  79
ATOM     79  N   UNL     1      17.593  67.004  22.426  1.00  0.00    -0.352 N 
ATOM     80  C   UNL     1      17.761  65.642  22.513  1.00  0.00     0.218 C 
ATOM     81  O   UNL     1      18.088  65.071  23.547  1.00  0.00    -0.274 OA
ATOM     82  H   UNL     1      17.549  67.433  21.506  1.00  0.00     0.163 HD
BRANCH  80  83
ATOM     83  C   UNL     1      17.458  64.925  21.217  1.00  0.00     0.113 C 
BRANCH  83  84
ATOM     84  C   UNL     1      18.728  64.566  20.458  1.00  0.00     0.119 C 
BRANCH  84  85
ATOM     85  C   UNL     1      19.492  65.800  20.077  1.00  0.00     0.139 C 
ATOM     86  O   UNL     1      19.300  66.517  19.109  1.00  0.00    -0.650 OA
BRANCH  85  87
ATOM     87  O   UNL     1      20.482  66.073  20.947  1.00  0.00    -0.776 OA
ATOM     88  H   UNL     1      21.206  66.426  20.390  1.00  0.00     0.167 HD
ENDBRANCH  85  87
ENDBRANCH  84  85
ENDBRANCH  83  84
ENDBRANCH  80  83
ENDBRANCH  74  79
BRANCH  75  89
ATOM     89  O   UNL     1      19.514  68.823  21.992  1.00  0.00    -0.391 OA
ATOM     90  H   UNL     1      18.661  68.767  21.522  1.00  0.00     0.210 HD
ENDBRANCH  75  89
ENDBRANCH  69  70
ENDBRANCH  63  69
BRANCH  64  91
ATOM     91  N   UNL     1      22.945  70.281  22.328  1.00  0.00    -0.251 NA
ATOM     92  C   UNL     1      22.703  69.597  21.166  1.00  0.00     0.198 C 
ATOM     93  O   UNL     1      21.622  69.806  20.612  1.00  0.00    -0.280 OA
ATOM     94  H   UNL     1      22.200  70.969  22.366  1.00  0.00     0.131 HD
BRANCH  92  95
ATOM     95  C   UNL     1      23.787  68.768  20.527  1.00  0.00     0.107 C 
BRANCH  95  96
ATOM     96  C   UNL     1      23.409  68.600  19.055  1.00  0.00     0.118 C 
BRANCH  96  97
ATOM     97  C   UNL     1      22.788  67.273  18.750  1.00  0.00     0.139 C 
ATOM     98  O   UNL     1      23.051  66.192  19.251  1.00  0.00    -0.650 OA
BRANCH  97  99
ATOM     99  O   UNL     1      21.780  67.386  17.859  1.00  0.00    -0.776 OA
ATOM    100  H   UNL     1      21.433  68.289  18.007  1.00  0.00     0.167 HD
ENDBRANCH  97  99
ENDBRANCH  96  97
ENDBRANCH  95  96
ENDBRANCH  92  95
ENDBRANCH  64  91
BRANCH  65 101
ATOM    101  O   UNL     1      23.978  71.347  25.124  1.00  0.00    -0.391 OA
ATOM    102  H   UNL     1      23.219  71.221  25.727  1.00  0.00     0.210 HD
ENDBRANCH  65 101
ENDBRANCH  59  60
ENDBRANCH   5  59
TORSDOF 44
ENDMDL
MODEL 6
REMARK VINA RESULT:      -6.9      2.548     15.321
REMARK WARNING: 32 MAX_TORS EXCEEDED!!!
REMARK  44 active torsions:
REMARK  status: ('A' for Active; 'I' for Inactive)
REMARK    1  A    between atoms: C_1  and  O_44 
REMARK    2  A    between atoms: C_2  and  C_6 
REMARK    3  A    between atoms: C_3  and  O_10 
REMARK    4  A    between atoms: C_4  and  N_12 
REMARK    5  A    between atoms: C_5  and  O_14 
REMARK    6  A    between atoms: C_6  and  O_7 
REMARK    7  A    between atoms: O_14  and  C_27 
REMARK    8  A    between atoms: O_16  and  C_21 
REMARK    9  A    between atoms: C_18  and  C_33 
REMARK   10  A    between atoms: O_20  and  C_33 
REMARK   11  A    between atoms: O_22  and  C_30 
REMARK   12  A    between atoms: O_22  and  C_70 
REMARK   13  A    between atoms: O_23  and  C_24 
REMARK   14  A    between atoms: C_24  and  C_28 
REMARK   15  A    between atoms: C_28  and  C_31 
REMARK       I    between atoms: N_29  and  C_32 
REMARK   16  A    between atoms: N_29  and  C_35 
REMARK   17  A    between atoms: C_31  and  C_32 
REMARK   18  A    between atoms: O_38  and  C_43 
REMARK   19  A    between atoms: C_40  and  C_55 
REMARK   20  A    between atoms: O_42  and  C_55 
REMARK   21  A    between atoms: O_44  and  C_52 
REMARK   22  A    between atoms: O_45  and  C_46 
REMARK   23  A    between atoms: C_46  and  C_50 
REMARK   24  A    between atoms: C_49  and  O_87 
REMARK   25  A    between atoms: C_50  and  C_53 
REMARK       I    between atoms: N_51  and  C_54 
REMARK   26  A    between atoms: N_51  and  C_57 
REMARK   27  A    between atoms: C_53  and  C_54 
REMARK   28  A    between atoms: O_60  and  C_65 
REMARK   29  A    between atoms: C_62  and  C_76 
REMARK   30  A    between atoms: O_64  and  C_76 
REMARK   31  A    between atoms: O_66  and  C_67 
REMARK   32  A    between atoms: C_67  and  C_71 
REMARK   33  A    between atoms: C_71  and  C_74 
REMARK       I    between atoms: N_72  and  C_75 
REMARK   34  A    between atoms: N_72  and  C_78 
REMARK   35  A    between atoms: C_74  and  C_75 
REMARK   36  A    between atoms: O_81  and  C_86 
REMARK   37  A    between atoms: C_83  and  C_98 
REMARK   38  A    between atoms: O_85  and  C_98 
REMARK   39  A    between atoms: O_87  and  C_95 
REMARK   40  A    between atoms: O_88  and  C_89 
REMARK   41  A    between atoms: C_89  and  C_93 
REMARK   42  A    between atoms: C_93  and  C_96 
REMARK       I    between atoms: N_94  and  C_97 
REMARK   43  A    between atoms: N_94  and  C_100 
REMARK   44  A    between atoms: C_96  and  C_97 
ROOT
ATOM      1  C   UNL     1      28.921  69.998  28.044  1.00  0.00     0.186 C 
ATOM      2  C   UNL     1      28.488  68.933  27.013  1.00  0.00     0.179 C 
ATOM      3  C   UNL     1      27.687  70.688  28.657  1.00  0.00     0.187 C 
ATOM      4  C   UNL     1      26.769  71.193  27.525  1.00  0.00     0.303 C 
ATOM      5  C   UNL     1      26.325  69.992  26.616  1.00  0.00     0.296 C 
ATOM      6  O   UNL     1      27.054  68.794  26.911  1.00  0.00    -0.349 OA
ENDROOT
BRANCH   1   7
ATOM      7  O   UNL     1      29.684  69.383  29.095  1.00  0.00    -0.348 OA
BRANCH   7   8
ATOM      8  C   UNL     1      31.020  69.872  29.256  1.00  0.00     0.286 C 
ATOM      9  O   UNL     1      31.737  69.521  28.068  1.00  0.00    -0.349 OA
ATOM     10  C   UNL     1      33.106  69.964  28.031  1.00  0.00     0.180 C 
ATOM     11  C   UNL     1      33.917  69.551  29.280  1.00  0.00     0.186 C 
ATOM     12  C   UNL     1      33.070  68.652  30.195  1.00  0.00     0.177 C 
ATOM     13  C   UNL     1      31.702  69.266  30.522  1.00  0.00     0.170 C 
BRANCH  10  14
ATOM     14  C   UNL     1      33.179  71.477  27.775  1.00  0.00     0.198 C 
BRANCH  14  15
ATOM     15  O   UNL     1      33.152  71.768  26.380  1.00  0.00    -0.398 OA
ATOM     16  H   UNL     1      33.564  72.642  26.244  1.00  0.00     0.209 HD
ENDBRANCH  14  15
ENDBRANCH  10  14
BRANCH  11  17
ATOM     17  O   UNL     1      35.055  68.798  28.836  1.00  0.00    -0.348 OA
BRANCH  17  18
ATOM     18  C   UNL     1      36.343  69.267  29.240  1.00  0.00     0.286 C 
ATOM     19  O   UNL     1      37.129  69.382  28.060  1.00  0.00    -0.352 OA
ATOM     20  C   UNL     1      38.435  69.951  28.262  1.00  0.00     0.150 C 
ATOM     21  C   UNL     1      39.046  69.631  29.630  1.00  0.00     0.068 C 
ATOM     22  C   UNL     1      38.544  68.292  30.144  1.00  0.00     0.148 C 
ATOM     23  C   UNL     1      37.005  68.312  30.281  1.00  0.00     0.168 C 
BRANCH  20  24
ATOM     24  C   UNL     1      38.359  71.464  28.017  1.00  0.00     0.196 C 
BRANCH  24  25
ATOM     25  O   UNL     1      37.287  71.765  27.126  1.00  0.00    -0.398 OA
ATOM     26  H   UNL     1      36.463  71.649  27.641  1.00  0.00     0.209 HD
ENDBRANCH  24  25
ENDBRANCH  20  24
BRANCH  22  27
ATOM     27  O   UNL     1      38.982  67.274  29.239  1.00  0.00    -0.393 OA
ATOM     28  H   UNL     1      39.895  67.512  28.989  1.00  0.00     0.210 HD
ENDBRANCH  22  27
BRANCH  23  29
ATOM     29  N   UNL     1      36.450  66.951  30.279  1.00  0.00    -0.349 N 
ATOM     30  C   UNL     1      36.303  66.264  31.463  1.00  0.00     0.218 C 
ATOM     31  O   UNL     1      36.818  66.652  32.508  1.00  0.00    -0.274 OA
ATOM     32  H   UNL     1      35.920  66.669  29.454  1.00  0.00     0.163 HD
BRANCH  30  33
ATOM     33  C   UNL     1      35.461  65.012  31.369  1.00  0.00     0.113 C 
BRANCH  33  34
ATOM     34  C   UNL     1      34.661  64.819  32.655  1.00  0.00     0.119 C 
BRANCH  34  35
ATOM     35  C   UNL     1      33.641  65.904  32.846  1.00  0.00     0.139 C 
ATOM     36  O   UNL     1      33.672  66.813  33.654  1.00  0.00    -0.650 OA
BRANCH  35  37
ATOM     37  O   UNL     1      32.600  65.768  32.001  1.00  0.00    -0.776 OA
ATOM     38  H   UNL     1      32.058  66.571  32.150  1.00  0.00     0.167 HD
ENDBRANCH  35  37
ENDBRANCH  34  35
ENDBRANCH  33  34
ENDBRANCH  30  33
ENDBRANCH  23  29
ENDBRANCH  17  18
ENDBRANCH  11  17
BRANCH  12  39
ATOM     39  O   UNL     1      32.913  67.338  29.626  1.00  0.00    -0.391 OA
ATOM     40  H   UNL     1      33.236  67.374  28.705  1.00  0.00     0.210 HD
ENDBRANCH  12  39
BRANCH  13  41
ATOM     41  N   UNL     1      30.890  68.277  31.228  1.00  0.00    -0.349 N 
ATOM     42  C   UNL     1      30.382  68.503  32.482  1.00  0.00     0.218 C 
ATOM     43  O   UNL     1      30.708  69.473  33.159  1.00  0.00    -0.274 OA
ATOM     44  H   UNL     1      30.500  67.524  30.668  1.00  0.00     0.163 HD
BRANCH  42  45
ATOM     45  C   UNL     1      29.442  67.416  32.945  1.00  0.00     0.113 C 
BRANCH  45  46
ATOM     46  C   UNL     1      28.863  66.636  31.775  1.00  0.00     0.119 C 
BRANCH  46  47
ATOM     47  C   UNL     1      29.174  65.174  31.908  1.00  0.00     0.139 C 
ATOM     48  O   UNL     1      29.786  64.626  32.808  1.00  0.00    -0.650 OA
BRANCH  47  49
ATOM     49  O   UNL     1      28.661  64.452  30.891  1.00  0.00    -0.776 OA
ATOM     50  H   UNL     1      29.208  64.704  30.118  1.00  0.00     0.167 HD
ENDBRANCH  47  49
ENDBRANCH  46  47
ENDBRANCH  45  46
ENDBRANCH  42  45
ENDBRANCH  13  41
ENDBRANCH   7   8
ENDBRANCH   1   7
BRANCH   2  51
ATOM     51  C   UNL     1      29.093  69.210  25.626  1.00  0.00     0.198 C 
BRANCH  51  52
ATOM     52  O   UNL     1      30.170  70.137  25.718  1.00  0.00    -0.398 OA
ATOM     53  H   UNL     1      30.957  69.653  26.036  1.00  0.00     0.209 HD
ENDBRANCH  51  52
ENDBRANCH   2  51
BRANCH   3  54
ATOM     54  O   UNL     1      26.958  69.817  29.540  1.00  0.00    -0.391 OA
ATOM     55  H   UNL     1      27.585  69.485  30.211  1.00  0.00     0.210 HD
ENDBRANCH   3  54
BRANCH   4  56
ATOM     56  N   UNL     1      25.689  72.011  28.107  1.00  0.00     0.090 N 
ATOM     57  H   UNL     1      25.107  71.470  28.733  1.00  0.00     0.313 HD
ATOM     58  H   UNL     1      26.130  72.740  28.679  1.00  0.00     0.313 HD
ENDBRANCH   4  56
BRANCH   5  59
ATOM     59  O   UNL     1      24.930  69.688  26.806  1.00  0.00    -0.348 OA
BRANCH  59  60
ATOM     60  C   UNL     1      24.269  69.121  25.660  1.00  0.00     0.186 C 
ATOM     61  C   UNL     1      22.785  68.778  25.950  1.00  0.00     0.179 C 
ATOM     62  O   UNL     1      21.839  69.339  25.016  1.00  0.00    -0.349 OA
ATOM     63  C   UNL     1      22.145  69.236  23.622  1.00  0.00     0.281 C 
ATOM     64  C   UNL     1      23.633  69.548  23.296  1.00  0.00     0.149 C 
ATOM     65  C   UNL     1      24.383  70.134  24.505  1.00  0.00     0.172 C 
BRANCH  61  66
ATOM     66  C   UNL     1      22.556  67.259  26.012  1.00  0.00     0.198 C 
BRANCH  66  67
ATOM     67  O   UNL     1      21.177  66.964  26.198  1.00  0.00    -0.398 OA
ATOM     68  H   UNL     1      21.016  66.059  25.870  1.00  0.00     0.209 HD
ENDBRANCH  66  67
ENDBRANCH  61  66
BRANCH  63  69
ATOM     69  O   UNL     1      21.257  70.093  22.912  1.00  0.00    -0.349 OA
BRANCH  69  70
ATOM     70  C   UNL     1      19.933  69.592  22.699  1.00  0.00     0.186 C 
ATOM     71  C   UNL     1      18.870  70.712  22.811  1.00  0.00     0.176 C 
ATOM     72  O   UNL     1      17.799  70.556  21.845  1.00  0.00    -0.379 OA
ATOM     73  C   UNL     1      17.372  69.199  21.674  1.00  0.00     0.196 C 
ATOM     74  C   UNL     1      18.483  68.332  21.056  1.00  0.00     0.139 C 
ATOM     75  C   UNL     1      19.867  68.971  21.284  1.00  0.00     0.174 C 
BRANCH  71  76
ATOM     76  C   UNL     1      18.246  70.821  24.210  1.00  0.00     0.198 C 
BRANCH  76  77
ATOM     77  O   UNL     1      19.251  70.643  25.206  1.00  0.00    -0.398 OA
ATOM     78  H   UNL     1      19.861  71.403  25.125  1.00  0.00     0.209 HD
ENDBRANCH  76  77
ENDBRANCH  71  76
BRANCH  74  79
ATOM     79  N   UNL     1      18.256  68.126  19.626  1.00  0.00    -0.352 N 
ATOM     80  C   UNL     1      17.682  66.981  19.124  1.00  0.00     0.218 C 
ATOM     81  O   UNL     1      17.251  66.080  19.834  1.00  0.00    -0.274 OA
ATOM     82  H   UNL     1      18.793  68.718  18.999  1.00  0.00     0.163 HD
BRANCH  80  83
ATOM     83  C   UNL     1      17.600  66.973  17.614  1.00  0.00     0.113 C 
BRANCH  83  84
ATOM     84  C   UNL     1      18.602  66.005  16.998  1.00  0.00     0.119 C 
BRANCH  84  85
ATOM     85  C   UNL     1      19.403  66.675  15.922  1.00  0.00     0.139 C 
ATOM     86  O   UNL     1      20.160  66.144  15.126  1.00  0.00    -0.650 OA
BRANCH  85  87
ATOM     87  O   UNL     1      19.213  68.008  15.903  1.00  0.00    -0.776 OA
ATOM     88  H   UNL     1      18.306  68.120  15.550  1.00  0.00     0.167 HD
ENDBRANCH  85  87
ENDBRANCH  84  85
ENDBRANCH  83  84
ENDBRANCH  80  83
ENDBRANCH  74  79
BRANCH  75  89
ATOM     89  O   UNL     1      20.118  69.949  20.254  1.00  0.00    -0.391 OA
ATOM     90  H   UNL     1      19.283  70.421  20.075  1.00  0.00     0.210 HD
ENDBRANCH  75  89
ENDBRANCH  69  70
ENDBRANCH  63  69
BRANCH  64  91
ATOM     91  N   UNL     1      23.973  70.135  21.988  1.00  0.00    -0.251 NA
ATOM     92  C   UNL     1      23.399  69.718  20.817  1.00  0.00     0.198 C 
ATOM     93  O   UNL     1      22.679  70.529  20.231  1.00  0.00    -0.280 OA
ATOM     94  H   UNL     1      23.795  71.134  22.006  1.00  0.00     0.131 HD
BRANCH  92  95
ATOM     95  C   UNL     1      23.778  68.393  20.208  1.00  0.00     0.107 C 
BRANCH  95  96
ATOM     96  C   UNL     1      23.391  68.455  18.731  1.00  0.00     0.118 C 
BRANCH  96  97
ATOM     97  C   UNL     1      22.055  67.842  18.442  1.00  0.00     0.139 C 
ATOM     98  O   UNL     1      21.720  66.679  18.587  1.00  0.00    -0.650 OA
BRANCH  97  99
ATOM     99  O   UNL     1      21.155  68.768  18.048  1.00  0.00    -0.776 OA
ATOM    100  H   UNL     1      21.020  68.577  17.097  1.00  0.00     0.167 HD
ENDBRANCH  97  99
ENDBRANCH  96  97
ENDBRANCH  95  96
ENDBRANCH  92  95
ENDBRANCH  64  91
BRANCH  65 101
ATOM    101  O   UNL     1      23.876  71.411  24.883  1.00  0.00    -0.391 OA
ATOM    102  H   UNL     1      24.238  71.608  25.770  1.00  0.00     0.210 HD
ENDBRANCH  65 101
ENDBRANCH  59  60
ENDBRANCH   5  59
TORSDOF 44
ENDMDL
MODEL 7
REMARK VINA RESULT:      -6.9      2.335     14.837
REMARK WARNING: 32 MAX_TORS EXCEEDED!!!
REMARK  44 active torsions:
REMARK  status: ('A' for Active; 'I' for Inactive)
REMARK    1  A    between atoms: C_1  and  O_44 
REMARK    2  A    between atoms: C_2  and  C_6 
REMARK    3  A    between atoms: C_3  and  O_10 
REMARK    4  A    between atoms: C_4  and  N_12 
REMARK    5  A    between atoms: C_5  and  O_14 
REMARK    6  A    between atoms: C_6  and  O_7 
REMARK    7  A    between atoms: O_14  and  C_27 
REMARK    8  A    between atoms: O_16  and  C_21 
REMARK    9  A    between atoms: C_18  and  C_33 
REMARK   10  A    between atoms: O_20  and  C_33 
REMARK   11  A    between atoms: O_22  and  C_30 
REMARK   12  A    between atoms: O_22  and  C_70 
REMARK   13  A    between atoms: O_23  and  C_24 
REMARK   14  A    between atoms: C_24  and  C_28 
REMARK   15  A    between atoms: C_28  and  C_31 
REMARK       I    between atoms: N_29  and  C_32 
REMARK   16  A    between atoms: N_29  and  C_35 
REMARK   17  A    between atoms: C_31  and  C_32 
REMARK   18  A    between atoms: O_38  and  C_43 
REMARK   19  A    between atoms: C_40  and  C_55 
REMARK   20  A    between atoms: O_42  and  C_55 
REMARK   21  A    between atoms: O_44  and  C_52 
REMARK   22  A    between atoms: O_45  and  C_46 
REMARK   23  A    between atoms: C_46  and  C_50 
REMARK   24  A    between atoms: C_49  and  O_87 
REMARK   25  A    between atoms: C_50  and  C_53 
REMARK       I    between atoms: N_51  and  C_54 
REMARK   26  A    between atoms: N_51  and  C_57 
REMARK   27  A    between atoms: C_53  and  C_54 
REMARK   28  A    between atoms: O_60  and  C_65 
REMARK   29  A    between atoms: C_62  and  C_76 
REMARK   30  A    between atoms: O_64  and  C_76 
REMARK   31  A    between atoms: O_66  and  C_67 
REMARK   32  A    between atoms: C_67  and  C_71 
REMARK   33  A    between atoms: C_71  and  C_74 
REMARK       I    between atoms: N_72  and  C_75 
REMARK   34  A    between atoms: N_72  and  C_78 
REMARK   35  A    between atoms: C_74  and  C_75 
REMARK   36  A    between atoms: O_81  and  C_86 
REMARK   37  A    between atoms: C_83  and  C_98 
REMARK   38  A    between atoms: O_85  and  C_98 
REMARK   39  A    between atoms: O_87  and  C_95 
REMARK   40  A    between atoms: O_88  and  C_89 
REMARK   41  A    between atoms: C_89  and  C_93 
REMARK   42  A    between atoms: C_93  and  C_96 
REMARK       I    between atoms: N_94  and  C_97 
REMARK   43  A    between atoms: N_94  and  C_100 
REMARK   44  A    between atoms: C_96  and  C_97 
ROOT
ATOM      1  C   UNL     1      28.795  70.350  28.000  1.00  0.00     0.186 C 
ATOM      2  C   UNL     1      28.498  69.048  27.224  1.00  0.00     0.179 C 
ATOM      3  C   UNL     1      27.493  70.947  28.569  1.00  0.00     0.187 C 
ATOM      4  C   UNL     1      26.449  71.068  27.439  1.00  0.00     0.303 C 
ATOM      5  C   UNL     1      26.172  69.657  26.810  1.00  0.00     0.296 C 
ATOM      6  O   UNL     1      27.105  68.670  27.264  1.00  0.00    -0.349 OA
ENDROOT
BRANCH   1   7
ATOM      7  O   UNL     1      29.700  70.082  29.082  1.00  0.00    -0.348 OA
BRANCH   7   8
ATOM      8  C   UNL     1      30.929  70.817  29.058  1.00  0.00     0.286 C 
ATOM      9  O   UNL     1      31.968  69.876  28.766  1.00  0.00    -0.349 OA
ATOM     10  C   UNL     1      33.288  70.442  28.666  1.00  0.00     0.180 C 
ATOM     11  C   UNL     1      33.680  71.303  29.888  1.00  0.00     0.186 C 
ATOM     12  C   UNL     1      32.589  71.227  30.968  1.00  0.00     0.177 C 
ATOM     13  C   UNL     1      31.191  71.539  30.415  1.00  0.00     0.170 C 
BRANCH  10  14
ATOM     14  C   UNL     1      33.448  71.213  27.347  1.00  0.00     0.198 C 
BRANCH  14  15
ATOM     15  O   UNL     1      34.813  71.546  27.105  1.00  0.00    -0.398 OA
ATOM     16  H   UNL     1      34.884  71.888  26.193  1.00  0.00     0.209 HD
ENDBRANCH  14  15
ENDBRANCH  10  14
BRANCH  11  17
ATOM     17  O   UNL     1      34.893  70.763  30.435  1.00  0.00    -0.348 OA
BRANCH  17  18
ATOM     18  C   UNL     1      36.070  71.566  30.321  1.00  0.00     0.286 C 
ATOM     19  O   UNL     1      35.702  72.735  29.598  1.00  0.00    -0.352 OA
ATOM     20  C   UNL     1      36.745  73.720  29.481  1.00  0.00     0.150 C 
ATOM     21  C   UNL     1      38.156  73.125  29.423  1.00  0.00     0.068 C 
ATOM     22  C   UNL     1      38.132  71.741  28.795  1.00  0.00     0.148 C 
ATOM     23  C   UNL     1      37.228  70.795  29.616  1.00  0.00     0.168 C 
BRANCH  20  24
ATOM     24  C   UNL     1      36.604  74.730  30.628  1.00  0.00     0.196 C 
BRANCH  24  25
ATOM     25  O   UNL     1      37.678  74.576  31.554  1.00  0.00    -0.398 OA
ATOM     26  H   UNL     1      37.618  73.660  31.891  1.00  0.00     0.209 HD
ENDBRANCH  24  25
ENDBRANCH  20  24
BRANCH  22  27
ATOM     27  O   UNL     1      37.675  71.872  27.445  1.00  0.00    -0.393 OA
ATOM     28  H   UNL     1      36.768  71.511  27.434  1.00  0.00     0.210 HD
ENDBRANCH  22  27
BRANCH  23  29
ATOM     29  N   UNL     1      36.780  69.650  28.810  1.00  0.00    -0.349 N 
ATOM     30  C   UNL     1      37.321  68.403  29.022  1.00  0.00     0.218 C 
ATOM     31  O   UNL     1      38.325  68.237  29.710  1.00  0.00    -0.274 OA
ATOM     32  H   UNL     1      35.884  69.746  28.331  1.00  0.00     0.163 HD
BRANCH  30  33
ATOM     33  C   UNL     1      36.581  67.268  28.349  1.00  0.00     0.113 C 
BRANCH  33  34
ATOM     34  C   UNL     1      35.102  67.310  28.725  1.00  0.00     0.119 C 
BRANCH  34  35
ATOM     35  C   UNL     1      34.873  66.867  30.142  1.00  0.00     0.139 C 
ATOM     36  O   UNL     1      35.046  65.756  30.606  1.00  0.00    -0.650 OA
BRANCH  35  37
ATOM     37  O   UNL     1      34.406  67.870  30.911  1.00  0.00    -0.776 OA
ATOM     38  H   UNL     1      34.051  68.524  30.273  1.00  0.00     0.167 HD
ENDBRANCH  35  37
ENDBRANCH  34  35
ENDBRANCH  33  34
ENDBRANCH  30  33
ENDBRANCH  23  29
ENDBRANCH  17  18
ENDBRANCH  11  17
BRANCH  12  39
ATOM     39  O   UNL     1      32.599  69.946  31.625  1.00  0.00    -0.391 OA
ATOM     40  H   UNL     1      32.053  69.336  31.093  1.00  0.00     0.210 HD
ENDBRANCH  12  39
BRANCH  13  41
ATOM     41  N   UNL     1      30.195  71.261  31.447  1.00  0.00    -0.349 N 
ATOM     42  C   UNL     1      29.589  72.256  32.172  1.00  0.00     0.218 C 
ATOM     43  O   UNL     1      29.958  73.425  32.121  1.00  0.00    -0.274 OA
ATOM     44  H   UNL     1      29.777  70.335  31.439  1.00  0.00     0.163 HD
BRANCH  42  45
ATOM     45  C   UNL     1      28.480  71.749  33.062  1.00  0.00     0.113 C 
BRANCH  45  46
ATOM     46  C   UNL     1      27.225  71.423  32.268  1.00  0.00     0.119 C 
BRANCH  46  47
ATOM     47  C   UNL     1      26.398  72.656  32.050  1.00  0.00     0.139 C 
ATOM     48  O   UNL     1      26.445  73.698  32.681  1.00  0.00    -0.650 OA
BRANCH  47  49
ATOM     49  O   UNL     1      25.556  72.525  31.007  1.00  0.00    -0.776 OA
ATOM     50  H   UNL     1      25.482  71.556  30.878  1.00  0.00     0.167 HD
ENDBRANCH  47  49
ENDBRANCH  46  47
ENDBRANCH  45  46
ENDBRANCH  42  45
ENDBRANCH  13  41
ENDBRANCH   7   8
ENDBRANCH   1   7
BRANCH   2  51
ATOM     51  C   UNL     1      28.981  69.137  25.766  1.00  0.00     0.198 C 
BRANCH  51  52
ATOM     52  O   UNL     1      30.153  69.939  25.667  1.00  0.00    -0.398 OA
ATOM     53  H   UNL     1      30.885  69.456  26.097  1.00  0.00     0.209 HD
ENDBRANCH  51  52
ENDBRANCH   2  51
BRANCH   3  54
ATOM     54  O   UNL     1      26.964  70.165  29.654  1.00  0.00    -0.391 OA
ATOM     55  H   UNL     1      26.236  69.620  29.297  1.00  0.00     0.210 HD
ENDBRANCH   3  54
BRANCH   4  56
ATOM     56  N   UNL     1      25.276  71.807  27.941  1.00  0.00     0.090 N 
ATOM     57  H   UNL     1      25.422  72.141  28.886  1.00  0.00     0.313 HD
ATOM     58  H   UNL     1      25.165  72.641  27.354  1.00  0.00     0.313 HD
ENDBRANCH   4  56
BRANCH   5  59
ATOM     59  O   UNL     1      24.859  69.183  27.164  1.00  0.00    -0.348 OA
BRANCH  59  60
ATOM     60  C   UNL     1      23.776  69.788  26.432  1.00  0.00     0.186 C 
ATOM     61  C   UNL     1      23.885  69.531  24.906  1.00  0.00     0.179 C 
ATOM     62  O   UNL     1      22.705  68.963  24.301  1.00  0.00    -0.349 OA
ATOM     63  C   UNL     1      21.441  69.532  24.654  1.00  0.00     0.281 C 
ATOM     64  C   UNL     1      21.305  69.828  26.175  1.00  0.00     0.149 C 
ATOM     65  C   UNL     1      22.458  69.219  26.991  1.00  0.00     0.172 C 
BRANCH  61  66
ATOM     66  C   UNL     1      24.249  70.814  24.141  1.00  0.00     0.198 C 
BRANCH  66  67
ATOM     67  O   UNL     1      24.122  70.615  22.737  1.00  0.00    -0.398 OA
ATOM     68  H   UNL     1      25.020  70.603  22.353  1.00  0.00     0.209 HD
ENDBRANCH  66  67
ENDBRANCH  61  66
BRANCH  63  69
ATOM     69  O   UNL     1      20.419  68.655  24.192  1.00  0.00    -0.349 OA
BRANCH  69  70
ATOM     70  C   UNL     1      19.600  69.147  23.125  1.00  0.00     0.186 C 
ATOM     71  C   UNL     1      19.470  70.689  23.164  1.00  0.00     0.176 C 
ATOM     72  O   UNL     1      19.472  71.277  21.837  1.00  0.00    -0.379 OA
ATOM     73  C   UNL     1      18.712  70.534  20.878  1.00  0.00     0.196 C 
ATOM     74  C   UNL     1      19.337  69.153  20.611  1.00  0.00     0.139 C 
ATOM     75  C   UNL     1      20.243  68.727  21.782  1.00  0.00     0.174 C 
BRANCH  71  76
ATOM     76  C   UNL     1      18.216  71.175  23.906  1.00  0.00     0.198 C 
BRANCH  76  77
ATOM     77  O   UNL     1      17.775  70.175  24.822  1.00  0.00    -0.398 OA
ATOM     78  H   UNL     1      18.572  69.681  25.099  1.00  0.00     0.209 HD
ENDBRANCH  76  77
ENDBRANCH  71  76
BRANCH  74  79
ATOM     79  N   UNL     1      20.098  69.151  19.362  1.00  0.00    -0.352 N 
ATOM     80  C   UNL     1      19.783  68.332  18.303  1.00  0.00     0.218 C 
ATOM     81  O   UNL     1      18.803  67.596  18.293  1.00  0.00    -0.274 OA
ATOM     82  H   UNL     1      21.029  69.555  19.406  1.00  0.00     0.163 HD
BRANCH  80  83
ATOM     83  C   UNL     1      20.744  68.469  17.143  1.00  0.00     0.113 C 
BRANCH  83  84
ATOM     84  C   UNL     1      20.874  67.169  16.360  1.00  0.00     0.119 C 
BRANCH  84  85
ATOM     85  C   UNL     1      20.231  67.289  15.011  1.00  0.00     0.139 C 
ATOM     86  O   UNL     1      20.786  67.269  13.925  1.00  0.00    -0.650 OA
BRANCH  85  87
ATOM     87  O   UNL     1      18.896  67.437  15.097  1.00  0.00    -0.776 OA
ATOM     88  H   UNL     1      18.702  68.225  14.549  1.00  0.00     0.167 HD
ENDBRANCH  85  87
ENDBRANCH  84  85
ENDBRANCH  83  84
ENDBRANCH  80  83
ENDBRANCH  74  79
BRANCH  75  89
ATOM     89  O   UNL     1      21.554  69.304  21.608  1.00  0.00    -0.391 OA
ATOM     90  H   UNL     1      22.216  68.630  21.846  1.00  0.00     0.210 HD
ENDBRANCH  75  89
ENDBRANCH  69  70
ENDBRANCH  63  69
BRANCH  64  91
ATOM     91  N   UNL     1      19.973  69.761  26.802  1.00  0.00    -0.251 NA
ATOM     92  C   UNL     1      19.558  70.650  27.757  1.00  0.00     0.198 C 
ATOM     93  O   UNL     1      18.628  71.400  27.454  1.00  0.00    -0.280 OA
ATOM     94  H   UNL     1      19.256  69.819  26.086  1.00  0.00     0.131 HD
BRANCH  92  95
ATOM     95  C   UNL     1      20.110  70.581  29.158  1.00  0.00     0.107 C 
BRANCH  95  96
ATOM     96  C   UNL     1      20.615  71.981  29.507  1.00  0.00     0.118 C 
BRANCH  96  97
ATOM     97  C   UNL     1      22.090  72.144  29.313  1.00  0.00     0.139 C 
ATOM     98  O   UNL     1      22.988  71.720  30.022  1.00  0.00    -0.650 OA
BRANCH  97  99
ATOM     99  O   UNL     1      22.375  72.785  28.160  1.00  0.00    -0.776 OA
ATOM    100  H   UNL     1      22.391  72.072  27.490  1.00  0.00     0.167 HD
ENDBRANCH  97  99
ENDBRANCH  96  97
ENDBRANCH  95  96
ENDBRANCH  92  95
ENDBRANCH  64  91
BRANCH  65 101
ATOM    101  O   UNL     1      22.449  67.794  26.952  1.00  0.00    -0.391 OA
ATOM    102  H   UNL     1      21.967  67.536  26.142  1.00  0.00     0.210 HD
ENDBRANCH  65 101
ENDBRANCH  59  60
ENDBRANCH   5  59
TORSDOF 44
ENDMDL
MODEL 8
REMARK VINA RESULT:      -6.9      6.637     12.243
REMARK WARNING: 32 MAX_TORS EXCEEDED!!!
REMARK  44 active torsions:
REMARK  status: ('A' for Active; 'I' for Inactive)
REMARK    1  A    between atoms: C_1  and  O_44 
REMARK    2  A    between atoms: C_2  and  C_6 
REMARK    3  A    between atoms: C_3  and  O_10 
REMARK    4  A    between atoms: C_4  and  N_12 
REMARK    5  A    between atoms: C_5  and  O_14 
REMARK    6  A    between atoms: C_6  and  O_7 
REMARK    7  A    between atoms: O_14  and  C_27 
REMARK    8  A    between atoms: O_16  and  C_21 
REMARK    9  A    between atoms: C_18  and  C_33 
REMARK   10  A    between atoms: O_20  and  C_33 
REMARK   11  A    between atoms: O_22  and  C_30 
REMARK   12  A    between atoms: O_22  and  C_70 
REMARK   13  A    between atoms: O_23  and  C_24 
REMARK   14  A    between atoms: C_24  and  C_28 
REMARK   15  A    between atoms: C_28  and  C_31 
REMARK       I    between atoms: N_29  and  C_32 
REMARK   16  A    between atoms: N_29  and  C_35 
REMARK   17  A    between atoms: C_31  and  C_32 
REMARK   18  A    between atoms: O_38  and  C_43 
REMARK   19  A    between atoms: C_40  and  C_55 
REMARK   20  A    between atoms: O_42  and  C_55 
REMARK   21  A    between atoms: O_44  and  C_52 
REMARK   22  A    between atoms: O_45  and  C_46 
REMARK   23  A    between atoms: C_46  and  C_50 
REMARK   24  A    between atoms: C_49  and  O_87 
REMARK   25  A    between atoms: C_50  and  C_53 
REMARK       I    between atoms: N_51  and  C_54 
REMARK   26  A    between atoms: N_51  and  C_57 
REMARK   27  A    between atoms: C_53  and  C_54 
REMARK   28  A    between atoms: O_60  and  C_65 
REMARK   29  A    between atoms: C_62  and  C_76 
REMARK   30  A    between atoms: O_64  and  C_76 
REMARK   31  A    between atoms: O_66  and  C_67 
REMARK   32  A    between atoms: C_67  and  C_71 
REMARK   33  A    between atoms: C_71  and  C_74 
REMARK       I    between atoms: N_72  and  C_75 
REMARK   34  A    between atoms: N_72  and  C_78 
REMARK   35  A    between atoms: C_74  and  C_75 
REMARK   36  A    between atoms: O_81  and  C_86 
REMARK   37  A    between atoms: C_83  and  C_98 
REMARK   38  A    between atoms: O_85  and  C_98 
REMARK   39  A    between atoms: O_87  and  C_95 
REMARK   40  A    between atoms: O_88  and  C_89 
REMARK   41  A    between atoms: C_89  and  C_93 
REMARK   42  A    between atoms: C_93  and  C_96 
REMARK       I    between atoms: N_94  and  C_97 
REMARK   43  A    between atoms: N_94  and  C_100 
REMARK   44  A    between atoms: C_96  and  C_97 
ROOT
ATOM      1  C   UNL     1      31.674  68.411  32.777  1.00  0.00     0.186 C 
ATOM      2  C   UNL     1      31.701  67.050  32.047  1.00  0.00     0.179 C 
ATOM      3  C   UNL     1      32.761  68.461  33.867  1.00  0.00     0.187 C 
ATOM      4  C   UNL     1      32.634  67.218  34.773  1.00  0.00     0.303 C 
ATOM      5  C   UNL     1      32.782  65.911  33.916  1.00  0.00     0.296 C 
ATOM      6  O   UNL     1      32.760  66.182  32.509  1.00  0.00    -0.349 OA
ENDROOT
BRANCH   1   7
ATOM      7  O   UNL     1      31.902  69.475  31.839  1.00  0.00    -0.348 OA
BRANCH   7   8
ATOM      8  C   UNL     1      30.804  70.375  31.646  1.00  0.00     0.286 C 
ATOM      9  O   UNL     1      29.945  69.776  30.670  1.00  0.00    -0.349 OA
ATOM     10  C   UNL     1      28.755  70.527  30.366  1.00  0.00     0.180 C 
ATOM     11  C   UNL     1      29.039  71.999  29.990  1.00  0.00     0.186 C 
ATOM     12  C   UNL     1      30.554  72.249  29.915  1.00  0.00     0.177 C 
ATOM     13  C   UNL     1      31.291  71.780  31.177  1.00  0.00     0.170 C 
BRANCH  10  14
ATOM     14  C   UNL     1      27.736  70.415  31.510  1.00  0.00     0.198 C 
BRANCH  14  15
ATOM     15  O   UNL     1      26.403  70.345  31.011  1.00  0.00    -0.398 OA
ATOM     16  H   UNL     1      26.214  71.175  30.533  1.00  0.00     0.209 HD
ENDBRANCH  14  15
ENDBRANCH  10  14
BRANCH  11  17
ATOM     17  O   UNL     1      28.479  72.237  28.690  1.00  0.00    -0.348 OA
BRANCH  17  18
ATOM     18  C   UNL     1      27.214  72.902  28.639  1.00  0.00     0.286 C 
ATOM     19  O   UNL     1      26.822  73.142  29.986  1.00  0.00    -0.352 OA
ATOM     20  C   UNL     1      25.613  73.910  30.130  1.00  0.00     0.150 C 
ATOM     21  C   UNL     1      24.598  73.685  29.004  1.00  0.00     0.068 C 
ATOM     22  C   UNL     1      24.727  72.282  28.435  1.00  0.00     0.148 C 
ATOM     23  C   UNL     1      26.149  72.059  27.872  1.00  0.00     0.168 C 
BRANCH  20  24
ATOM     24  C   UNL     1      25.981  75.393  30.272  1.00  0.00     0.196 C 
BRANCH  24  25
ATOM     25  O   UNL     1      26.120  75.990  28.985  1.00  0.00    -0.398 OA
ATOM     26  H   UNL     1      26.948  76.510  29.012  1.00  0.00     0.209 HD
ENDBRANCH  24  25
ENDBRANCH  20  24
BRANCH  22  27
ATOM     27  O   UNL     1      24.416  71.348  29.474  1.00  0.00    -0.393 OA
ATOM     28  H   UNL     1      23.472  71.128  29.362  1.00  0.00     0.210 HD
ENDBRANCH  22  27
BRANCH  23  29
ATOM     29  N   UNL     1      26.471  70.628  27.784  1.00  0.00    -0.349 N 
ATOM     30  C   UNL     1      26.552  70.013  26.555  1.00  0.00     0.218 C 
ATOM     31  O   UNL     1      26.153  70.557  25.528  1.00  0.00    -0.274 OA
ATOM     32  H   UNL     1      26.912  70.202  28.599  1.00  0.00     0.163 HD
BRANCH  30  33
ATOM     33  C   UNL     1      27.171  68.634  26.575  1.00  0.00     0.113 C 
BRANCH  33  34
ATOM     34  C   UNL     1      28.652  68.728  26.932  1.00  0.00     0.119 C 
BRANCH  34  35
ATOM     35  C   UNL     1      29.401  69.616  25.981  1.00  0.00     0.139 C 
ATOM     36  O   UNL     1      30.395  70.278  26.216  1.00  0.00    -0.650 OA
BRANCH  35  37
ATOM     37  O   UNL     1      28.828  69.640  24.762  1.00  0.00    -0.776 OA
ATOM     38  H   UNL     1      27.951  70.049  24.911  1.00  0.00     0.167 HD
ENDBRANCH  35  37
ENDBRANCH  34  35
ENDBRANCH  33  34
ENDBRANCH  30  33
ENDBRANCH  23  29
ENDBRANCH  17  18
ENDBRANCH  11  17
BRANCH  12  39
ATOM     39  O   UNL     1      31.121  71.638  28.740  1.00  0.00    -0.391 OA
ATOM     40  H   UNL     1      31.114  72.305  28.027  1.00  0.00     0.210 HD
ENDBRANCH  12  39
BRANCH  13  41
ATOM     41  N   UNL     1      32.732  71.874  30.952  1.00  0.00    -0.349 N 
ATOM     42  C   UNL     1      33.535  72.726  31.667  1.00  0.00     0.218 C 
ATOM     43  O   UNL     1      33.080  73.580  32.422  1.00  0.00    -0.274 OA
ATOM     44  H   UNL     1      33.162  71.113  30.433  1.00  0.00     0.163 HD
BRANCH  42  45
ATOM     45  C   UNL     1      35.005  72.535  31.381  1.00  0.00     0.113 C 
BRANCH  45  46
ATOM     46  C   UNL     1      35.234  71.588  30.214  1.00  0.00     0.119 C 
BRANCH  46  47
ATOM     47  C   UNL     1      35.320  72.348  28.923  1.00  0.00     0.139 C 
ATOM     48  O   UNL     1      36.303  72.892  28.449  1.00  0.00    -0.650 OA
BRANCH  47  49
ATOM     49  O   UNL     1      34.146  72.361  28.262  1.00  0.00    -0.776 OA
ATOM     50  H   UNL     1      34.175  73.188  27.737  1.00  0.00     0.167 HD
ENDBRANCH  47  49
ENDBRANCH  46  47
ENDBRANCH  45  46
ENDBRANCH  42  45
ENDBRANCH  13  41
ENDBRANCH   7   8
ENDBRANCH   1   7
BRANCH   2  51
ATOM     51  C   UNL     1      30.346  66.329  32.144  1.00  0.00     0.198 C 
BRANCH  51  52
ATOM     52  O   UNL     1      29.500  66.691  31.058  1.00  0.00    -0.398 OA
ATOM     53  H   UNL     1      28.977  67.469  31.329  1.00  0.00     0.209 HD
ENDBRANCH  51  52
ENDBRANCH   2  51
BRANCH   3  54
ATOM     54  O   UNL     1      34.086  68.540  33.313  1.00  0.00    -0.391 OA
ATOM     55  H   UNL     1      34.332  69.485  33.273  1.00  0.00     0.210 HD
ENDBRANCH   3  54
BRANCH   4  56
ATOM     56  N   UNL     1      33.550  67.360  35.920  1.00  0.00     0.090 N 
ATOM     57  H   UNL     1      33.905  68.304  35.999  1.00  0.00     0.313 HD
ATOM     58  H   UNL     1      33.005  67.184  36.771  1.00  0.00     0.313 HD
ENDBRANCH   4  56
BRANCH   5  59
ATOM     59  O   UNL     1      34.032  65.251  34.193  1.00  0.00    -0.348 OA
BRANCH  59  60
ATOM     60  C   UNL     1      35.155  65.729  33.430  1.00  0.00     0.186 C 
ATOM     61  C   UNL     1      36.509  65.407  34.115  1.00  0.00     0.179 C 
ATOM     62  O   UNL     1      37.462  64.717  33.281  1.00  0.00    -0.349 OA
ATOM     63  C   UNL     1      37.644  65.199  31.946  1.00  0.00     0.281 C 
ATOM     64  C   UNL     1      36.308  65.558  31.236  1.00  0.00     0.149 C 
ATOM     65  C   UNL     1      35.080  65.085  32.032  1.00  0.00     0.172 C 
BRANCH  61  66
ATOM     66  C   UNL     1      37.180  66.676  34.666  1.00  0.00     0.198 C 
BRANCH  66  67
ATOM     67  O   UNL     1      36.208  67.672  34.961  1.00  0.00    -0.398 OA
ATOM     68  H   UNL     1      35.326  67.296  34.774  1.00  0.00     0.209 HD
ENDBRANCH  66  67
ENDBRANCH  61  66
BRANCH  63  69
ATOM     69  O   UNL     1      38.383  64.221  31.222  1.00  0.00    -0.349 OA
BRANCH  69  70
ATOM     70  C   UNL     1      39.762  64.522  30.983  1.00  0.00     0.186 C 
ATOM     71  C   UNL     1      40.379  63.582  29.918  1.00  0.00     0.176 C 
ATOM     72  O   UNL     1      41.312  64.272  29.047  1.00  0.00    -0.379 OA
ATOM     73  C   UNL     1      42.156  65.205  29.731  1.00  0.00     0.196 C 
ATOM     74  C   UNL     1      41.346  66.376  30.314  1.00  0.00     0.139 C 
ATOM     75  C   UNL     1      39.865  65.984  30.488  1.00  0.00     0.174 C 
BRANCH  71  76
ATOM     76  C   UNL     1      41.093  62.364  30.523  1.00  0.00     0.198 C 
BRANCH  76  77
ATOM     77  O   UNL     1      41.032  62.421  31.947  1.00  0.00    -0.398 OA
ATOM     78  H   UNL     1      41.200  61.514  32.268  1.00  0.00     0.209 HD
ENDBRANCH  76  77
ENDBRANCH  71  76
BRANCH  74  79
ATOM     79  N   UNL     1      41.453  67.564  29.468  1.00  0.00    -0.352 N 
ATOM     80  C   UNL     1      41.530  68.837  29.984  1.00  0.00     0.218 C 
ATOM     81  O   UNL     1      41.588  69.071  31.186  1.00  0.00    -0.274 OA
ATOM     82  H   UNL     1      41.179  67.447  28.496  1.00  0.00     0.163 HD
BRANCH  80  83
ATOM     83  C   UNL     1      41.580  69.906  28.916  1.00  0.00     0.113 C 
BRANCH  83  84
ATOM     84  C   UNL     1      40.521  69.685  27.844  1.00  0.00     0.119 C 
BRANCH  84  85
ATOM     85  C   UNL     1      39.145  69.912  28.394  1.00  0.00     0.139 C 
ATOM     86  O   UNL     1      38.553  69.223  29.208  1.00  0.00    -0.650 OA
BRANCH  85  87
ATOM     87  O   UNL     1      38.568  71.014  27.879  1.00  0.00    -0.776 OA
ATOM     88  H   UNL     1      39.263  71.412  27.314  1.00  0.00     0.167 HD
ENDBRANCH  85  87
ENDBRANCH  84  85
ENDBRANCH  83  84
ENDBRANCH  80  83
ENDBRANCH  74  79
BRANCH  75  89
ATOM     89  O   UNL     1      39.168  66.180  29.240  1.00  0.00    -0.391 OA
ATOM     90  H   UNL     1      39.448  67.038  28.869  1.00  0.00     0.210 HD
ENDBRANCH  75  89
ENDBRANCH  69  70
ENDBRANCH  63  69
BRANCH  64  91
ATOM     91  N   UNL     1      36.214  65.415  29.772  1.00  0.00    -0.251 NA
ATOM     92  C   UNL     1      35.740  66.409  28.959  1.00  0.00     0.198 C 
ATOM     93  O   UNL     1      36.543  66.919  28.176  1.00  0.00    -0.280 OA
ATOM     94  H   UNL     1      37.130  65.203  29.391  1.00  0.00     0.131 HD
BRANCH  92  95
ATOM     95  C   UNL     1      34.268  66.730  28.922  1.00  0.00     0.107 C 
BRANCH  95  96
ATOM     96  C   UNL     1      34.120  68.192  29.342  1.00  0.00     0.118 C 
BRANCH  96  97
ATOM     97  C   UNL     1      33.113  68.944  28.528  1.00  0.00     0.139 C 
ATOM     98  O   UNL     1      33.324  69.727  27.617  1.00  0.00    -0.650 OA
BRANCH  97  99
ATOM     99  O   UNL     1      31.849  68.603  28.857  1.00  0.00    -0.776 OA
ATOM    100  H   UNL     1      31.294  69.178  28.292  1.00  0.00     0.167 HD
ENDBRANCH  97  99
ENDBRANCH  96  97
ENDBRANCH  95  96
ENDBRANCH  92  95
ENDBRANCH  64  91
BRANCH  65 101
ATOM    101  O   UNL     1      35.012  63.664  32.120  1.00  0.00    -0.391 OA
ATOM    102  H   UNL     1      35.852  63.317  31.758  1.00  0.00     0.210 HD
ENDBRANCH  65 101
ENDBRANCH  59  60
ENDBRANCH   5  59
TORSDOF 44
ENDMDL
MODEL 9
REMARK VINA RESULT:      -6.8      2.981      6.475
REMARK WARNING: 32 MAX_TORS EXCEEDED!!!
REMARK  44 active torsions:
REMARK  status: ('A' for Active; 'I' for Inactive)
REMARK    1  A    between atoms: C_1  and  O_44 
REMARK    2  A    between atoms: C_2  and  C_6 
REMARK    3  A    between atoms: C_3  and  O_10 
REMARK    4  A    between atoms: C_4  and  N_12 
REMARK    5  A    between atoms: C_5  and  O_14 
REMARK    6  A    between atoms: C_6  and  O_7 
REMARK    7  A    between atoms: O_14  and  C_27 
REMARK    8  A    between atoms: O_16  and  C_21 
REMARK    9  A    between atoms: C_18  and  C_33 
REMARK   10  A    between atoms: O_20  and  C_33 
REMARK   11  A    between atoms: O_22  and  C_30 
REMARK   12  A    between atoms: O_22  and  C_70 
REMARK   13  A    between atoms: O_23  and  C_24 
REMARK   14  A    between atoms: C_24  and  C_28 
REMARK   15  A    between atoms: C_28  and  C_31 
REMARK       I    between atoms: N_29  and  C_32 
REMARK   16  A    between atoms: N_29  and  C_35 
REMARK   17  A    between atoms: C_31  and  C_32 
REMARK   18  A    between atoms: O_38  and  C_43 
REMARK   19  A    between atoms: C_40  and  C_55 
REMARK   20  A    between atoms: O_42  and  C_55 
REMARK   21  A    between atoms: O_44  and  C_52 
REMARK   22  A    between atoms: O_45  and  C_46 
REMARK   23  A    between atoms: C_46  and  C_50 
REMARK   24  A    between atoms: C_49  and  O_87 
REMARK   25  A    between atoms: C_50  and  C_53 
REMARK       I    between atoms: N_51  and  C_54 
REMARK   26  A    between atoms: N_51  and  C_57 
REMARK   27  A    between atoms: C_53  and  C_54 
REMARK   28  A    between atoms: O_60  and  C_65 
REMARK   29  A    between atoms: C_62  and  C_76 
REMARK   30  A    between atoms: O_64  and  C_76 
REMARK   31  A    between atoms: O_66  and  C_67 
REMARK   32  A    between atoms: C_67  and  C_71 
REMARK   33  A    between atoms: C_71  and  C_74 
REMARK       I    between atoms: N_72  and  C_75 
REMARK   34  A    between atoms: N_72  and  C_78 
REMARK   35  A    between atoms: C_74  and  C_75 
REMARK   36  A    between atoms: O_81  and  C_86 
REMARK   37  A    between atoms: C_83  and  C_98 
REMARK   38  A    between atoms: O_85  and  C_98 
REMARK   39  A    between atoms: O_87  and  C_95 
REMARK   40  A    between atoms: O_88  and  C_89 
REMARK   41  A    between atoms: C_89  and  C_93 
REMARK   42  A    between atoms: C_93  and  C_96 
REMARK       I    between atoms: N_94  and  C_97 
REMARK   43  A    between atoms: N_94  and  C_100 
REMARK   44  A    between atoms: C_96  and  C_97 
ROOT
ATOM      1  C   UNL     1      19.244  68.535  21.961  1.00  0.00     0.186 C 
ATOM      2  C   UNL     1      20.586  67.937  22.437  1.00  0.00     0.179 C 
ATOM      3  C   UNL     1      19.008  69.914  22.606  1.00  0.00     0.187 C 
ATOM      4  C   UNL     1      19.180  69.800  24.135  1.00  0.00     0.303 C 
ATOM      5  C   UNL     1      20.621  69.278  24.476  1.00  0.00     0.296 C 
ATOM      6  O   UNL     1      21.320  68.822  23.312  1.00  0.00    -0.349 OA
ENDROOT
BRANCH   1   7
ATOM      7  O   UNL     1      19.250  68.682  20.531  1.00  0.00    -0.348 OA
BRANCH   7   8
ATOM      8  C   UNL     1      18.509  67.695  19.805  1.00  0.00     0.286 C 
ATOM      9  O   UNL     1      17.987  66.776  20.770  1.00  0.00    -0.349 OA
ATOM     10  C   UNL     1      17.175  65.719  20.224  1.00  0.00     0.180 C 
ATOM     11  C   UNL     1      17.864  64.948  19.075  1.00  0.00     0.186 C 
ATOM     12  C   UNL     1      19.310  65.436  18.895  1.00  0.00     0.177 C 
ATOM     13  C   UNL     1      19.403  66.962  18.758  1.00  0.00     0.170 C 
BRANCH  10  14
ATOM     14  C   UNL     1      15.796  66.255  19.808  1.00  0.00     0.198 C 
BRANCH  14  15
ATOM     15  O   UNL     1      15.298  65.567  18.664  1.00  0.00    -0.398 OA
ATOM     16  H   UNL     1      15.906  64.829  18.466  1.00  0.00     0.209 HD
ENDBRANCH  14  15
ENDBRANCH  10  14
BRANCH  11  17
ATOM     17  O   UNL     1      17.899  63.559  19.438  1.00  0.00    -0.348 OA
BRANCH  17  18
ATOM     18  C   UNL     1      17.089  63.156  20.544  1.00  0.00     0.286 C 
ATOM     19  O   UNL     1      17.921  63.189  21.697  1.00  0.00    -0.352 OA
ATOM     20  C   UNL     1      17.241  62.915  22.936  1.00  0.00     0.150 C 
ATOM     21  C   UNL     1      16.065  61.942  22.795  1.00  0.00     0.068 C 
ATOM     22  C   UNL     1      16.303  60.972  21.650  1.00  0.00     0.148 C 
ATOM     23  C   UNL     1      16.471  61.741  20.321  1.00  0.00     0.168 C 
BRANCH  20  24
ATOM     24  C   UNL     1      16.802  64.245  23.564  1.00  0.00     0.196 C 
BRANCH  24  25
ATOM     25  O   UNL     1      17.402  64.404  24.847  1.00  0.00    -0.398 OA
ATOM     26  H   UNL     1      18.010  65.167  24.772  1.00  0.00     0.209 HD
ENDBRANCH  24  25
ENDBRANCH  20  24
BRANCH  22  27
ATOM     27  O   UNL     1      17.461  60.190  21.961  1.00  0.00    -0.393 OA
ATOM     28  H   UNL     1      18.162  60.830  22.189  1.00  0.00     0.210 HD
ENDBRANCH  22  27
BRANCH  23  29
ATOM     29  N   UNL     1      17.181  60.931  19.320  1.00  0.00    -0.349 N 
ATOM     30  C   UNL     1      16.474  60.263  18.346  1.00  0.00     0.218 C 
ATOM     31  O   UNL     1      15.254  60.135  18.400  1.00  0.00    -0.274 OA
ATOM     32  H   UNL     1      18.175  61.120  19.193  1.00  0.00     0.163 HD
BRANCH  30  33
ATOM     33  C   UNL     1      17.316  59.715  17.216  1.00  0.00     0.113 C 
BRANCH  33  34
ATOM     34  C   UNL     1      17.122  58.205  17.100  1.00  0.00     0.119 C 
BRANCH  34  35
ATOM     35  C   UNL     1      18.330  57.449  17.572  1.00  0.00     0.139 C 
ATOM     36  O   UNL     1      18.479  56.883  18.639  1.00  0.00    -0.650 OA
BRANCH  35  37
ATOM     37  O   UNL     1      19.321  57.466  16.658  1.00  0.00    -0.776 OA
ATOM     38  H   UNL     1      18.877  57.251  15.811  1.00  0.00     0.167 HD
ENDBRANCH  35  37
ENDBRANCH  34  35
ENDBRANCH  33  34
ENDBRANCH  30  33
ENDBRANCH  23  29
ENDBRANCH  17  18
ENDBRANCH  11  17
BRANCH  12  39
ATOM     39  O   UNL     1      20.150  64.972  19.969  1.00  0.00    -0.391 OA
ATOM     40  H   UNL     1      20.729  65.712  20.233  1.00  0.00     0.210 HD
ENDBRANCH  12  39
BRANCH  13  41
ATOM     41  N   UNL     1      20.809  67.360  18.784  1.00  0.00    -0.349 N 
ATOM     42  C   UNL     1      21.407  68.019  17.740  1.00  0.00     0.218 C 
ATOM     43  O   UNL     1      20.854  68.171  16.655  1.00  0.00    -0.274 OA
ATOM     44  H   UNL     1      21.265  67.364  19.693  1.00  0.00     0.163 HD
BRANCH  42  45
ATOM     45  C   UNL     1      22.813  68.474  18.053  1.00  0.00     0.113 C 
BRANCH  45  46
ATOM     46  C   UNL     1      23.274  67.980  19.415  1.00  0.00     0.119 C 
BRANCH  46  47
ATOM     47  C   UNL     1      23.358  69.117  20.391  1.00  0.00     0.139 C 
ATOM     48  O   UNL     1      22.576  70.044  20.516  1.00  0.00    -0.650 OA
BRANCH  47  49
ATOM     49  O   UNL     1      24.431  69.013  21.199  1.00  0.00    -0.776 OA
ATOM     50  H   UNL     1      24.479  69.883  21.648  1.00  0.00     0.167 HD
ENDBRANCH  47  49
ENDBRANCH  46  47
ENDBRANCH  45  46
ENDBRANCH  42  45
ENDBRANCH  13  41
ENDBRANCH   7   8
ENDBRANCH   1   7
BRANCH   2  51
ATOM     51  C   UNL     1      20.387  66.569  23.112  1.00  0.00     0.198 C 
BRANCH  51  52
ATOM     52  O   UNL     1      19.014  66.347  23.414  1.00  0.00    -0.398 OA
ATOM     53  H   UNL     1      18.892  65.392  23.575  1.00  0.00     0.209 HD
ENDBRANCH  51  52
ENDBRANCH   2  51
BRANCH   3  54
ATOM     54  O   UNL     1      19.891  70.921  22.079  1.00  0.00    -0.391 OA
ATOM     55  H   UNL     1      20.656  70.461  21.680  1.00  0.00     0.210 HD
ENDBRANCH   3  54
BRANCH   4  56
ATOM     56  N   UNL     1      18.775  71.070  24.764  1.00  0.00     0.090 N 
ATOM     57  H   UNL     1      18.714  71.819  24.086  1.00  0.00     0.313 HD
ATOM     58  H   UNL     1      17.828  70.939  25.136  1.00  0.00     0.313 HD
ENDBRANCH   4  56
BRANCH   5  59
ATOM     59  O   UNL     1      21.423  70.321  25.061  1.00  0.00    -0.348 OA
BRANCH  59  60
ATOM     60  C   UNL     1      22.762  69.931  25.420  1.00  0.00     0.186 C 
ATOM     61  C   UNL     1      23.768  71.104  25.290  1.00  0.00     0.179 C 
ATOM     62  O   UNL     1      24.555  71.361  26.472  1.00  0.00    -0.349 OA
ATOM     63  C   UNL     1      25.135  70.235  27.138  1.00  0.00     0.281 C 
ATOM     64  C   UNL     1      24.162  69.028  27.263  1.00  0.00     0.149 C 
ATOM     65  C   UNL     1      22.723  69.397  26.864  1.00  0.00     0.172 C 
BRANCH  61  66
ATOM     66  C   UNL     1      24.728  70.898  24.107  1.00  0.00     0.198 C 
BRANCH  66  67
ATOM     67  O   UNL     1      24.878  69.514  23.816  1.00  0.00    -0.398 OA
ATOM     68  H   UNL     1      25.530  69.144  24.443  1.00  0.00     0.209 HD
ENDBRANCH  66  67
ENDBRANCH  61  66
BRANCH  63  69
ATOM     69  O   UNL     1      25.604  70.670  28.409  1.00  0.00    -0.349 OA
BRANCH  69  70
ATOM     70  C   UNL     1      26.714  71.575  28.397  1.00  0.00     0.186 C 
ATOM     71  C   UNL     1      26.754  72.454  29.670  1.00  0.00     0.176 C 
ATOM     72  O   UNL     1      28.107  72.684  30.141  1.00  0.00    -0.379 OA
ATOM     73  C   UNL     1      29.048  72.930  29.090  1.00  0.00     0.196 C 
ATOM     74  C   UNL     1      29.232  71.691  28.196  1.00  0.00     0.139 C 
ATOM     75  C   UNL     1      28.019  70.748  28.312  1.00  0.00     0.174 C 
BRANCH  71  76
ATOM     76  C   UNL     1      26.068  73.816  29.490  1.00  0.00     0.198 C 
BRANCH  76  77
ATOM     77  O   UNL     1      25.256  73.802  28.318  1.00  0.00    -0.398 OA
ATOM     78  H   UNL     1      25.399  72.933  27.892  1.00  0.00     0.209 HD
ENDBRANCH  76  77
ENDBRANCH  71  76
BRANCH  74  79
ATOM     79  N   UNL     1      30.459  70.973  28.535  1.00  0.00    -0.352 N 
ATOM     80  C   UNL     1      31.413  70.651  27.598  1.00  0.00     0.218 C 
ATOM     81  O   UNL     1      31.346  71.000  26.425  1.00  0.00    -0.274 OA
ATOM     82  H   UNL     1      30.452  70.470  29.418  1.00  0.00     0.163 HD
BRANCH  80  83
ATOM     83  C   UNL     1      32.567  69.862  28.175  1.00  0.00     0.113 C 
BRANCH  83  84
ATOM     84  C   UNL     1      33.910  70.373  27.671  1.00  0.00     0.119 C 
BRANCH  84  85
ATOM     85  C   UNL     1      34.236  71.708  28.272  1.00  0.00     0.139 C 
ATOM     86  O   UNL     1      33.968  72.096  29.397  1.00  0.00    -0.650 OA
BRANCH  85  87
ATOM     87  O   UNL     1      34.892  72.506  27.409  1.00  0.00    -0.776 OA
ATOM     88  H   UNL     1      34.200  73.099  27.051  1.00  0.00     0.167 HD
ENDBRANCH  85  87
ENDBRANCH  84  85
ENDBRANCH  83  84
ENDBRANCH  80  83
ENDBRANCH  74  79
BRANCH  75  89
ATOM     89  O   UNL     1      28.188  69.890  29.459  1.00  0.00    -0.391 OA
ATOM     90  H   UNL     1      27.795  69.023  29.249  1.00  0.00     0.210 HD
ENDBRANCH  75  89
ENDBRANCH  69  70
ENDBRANCH  63  69
BRANCH  64  91
ATOM     91  N   UNL     1      24.292  68.118  28.415  1.00  0.00    -0.251 NA
ATOM     92  C   UNL     1      25.491  67.582  28.804  1.00  0.00     0.198 C 
ATOM     93  O   UNL     1      25.930  67.935  29.900  1.00  0.00    -0.280 OA
ATOM     94  H   UNL     1      23.947  68.576  29.252  1.00  0.00     0.131 HD
BRANCH  92  95
ATOM     95  C   UNL     1      26.137  66.487  27.994  1.00  0.00     0.107 C 
BRANCH  95  96
ATOM     96  C   UNL     1      27.268  67.133  27.194  1.00  0.00     0.118 C 
BRANCH  96  97
ATOM     97  C   UNL     1      27.983  66.173  26.297  1.00  0.00     0.139 C 
ATOM     98  O   UNL     1      28.037  64.958  26.393  1.00  0.00    -0.650 OA
BRANCH  97  99
ATOM     99  O   UNL     1      28.550  66.799  25.243  1.00  0.00    -0.776 OA
ATOM    100  H   UNL     1      29.496  66.557  25.304  1.00  0.00     0.167 HD
ENDBRANCH  97  99
ENDBRANCH  96  97
ENDBRANCH  95  96
ENDBRANCH  92  95
ENDBRANCH  64  91
BRANCH  65 101
ATOM    101  O   UNL     1      22.148  70.351  27.754  1.00  0.00    -0.391 OA
ATOM    102  H   UNL     1      22.655  70.302  28.589  1.00  0.00     0.210 HD
ENDBRANCH  65 101
ENDBRANCH  59  60
ENDBRANCH   5  59
TORSDOF 44
ENDMDL
