REMARK WARNING: 32 MAX_TORS EXCEEDED!!!
REMARK  40 active torsions:
REMARK  status: ('A' for Active; 'I' for Inactive)
REMARK    1  A    between atoms: C_1  and  O_123 
REMARK    2  A    between atoms: C_2  and  C_6 
REMARK    3  A    between atoms: C_3  and  O_10 
REMARK    4  A    between atoms: C_4  and  N_12 
REMARK    5  A    between atoms: C_5  and  O_124 
REMARK    6  A    between atoms: C_6  and  O_7 
REMARK    7  A    between atoms: N_12  and  S_13 
REMARK    8  A    between atoms: S_13  and  C_17 
REMARK    9  A    between atoms: C_20  and  N_23 
REMARK       I    between atoms: N_23  and  C_24 
REMARK   10  A    between atoms: O_29  and  C_33 
REMARK   11  A    between atoms: O_30  and  C_34 
REMARK   12  A    between atoms: C_31  and  C_34 
REMARK   13  A    between atoms: C_36  and  O_124 
REMARK   14  A    between atoms: N_37  and  C_40 
REMARK   15  A    between atoms: C_38  and  O_125 
REMARK   16  A    between atoms: O_42  and  C_46 
REMARK   17  A    between atoms: O_43  and  C_47 
REMARK   18  A    between atoms: C_44  and  C_47 
REMARK   19  A    between atoms: C_49  and  O_125 
REMARK   20  A    between atoms: N_50  and  S_61 
REMARK   21  A    between atoms: N_50  and  C_53 
REMARK   22  A    between atoms: C_51  and  O_126 
REMARK   23  A    between atoms: C_56  and  N_63 
REMARK   24  A    between atoms: C_59  and  S_61 
REMARK       I    between atoms: C_62  and  N_63 
REMARK   25  A    between atoms: O_69  and  C_73 
REMARK   26  A    between atoms: O_70  and  C_74 
REMARK   27  A    between atoms: C_71  and  C_74 
REMARK   28  A    between atoms: C_76  and  O_126 
REMARK   29  A    between atoms: N_77  and  S_88 
REMARK   30  A    between atoms: N_77  and  C_80 
REMARK   31  A    between atoms: C_83  and  N_90 
REMARK   32  A    between atoms: C_86  and  S_88 
REMARK       I    between atoms: C_89  and  N_90 
REMARK   33  A    between atoms: O_96  and  C_100 
REMARK   34  A    between atoms: O_97  and  C_101 
REMARK   35  A    between atoms: C_98  and  C_101 
REMARK   36  A    between atoms: N_104  and  S_115 
REMARK   37  A    between atoms: N_104  and  C_107 
REMARK   38  A    between atoms: C_105  and  O_123 
REMARK   39  A    between atoms: C_110  and  N_117 
REMARK   40  A    between atoms: C_113  and  S_115 
REMARK       I    between atoms: C_116  and  N_117 
ROOT
HETATM    1  C   UNL     1      -0.200  -1.893  -1.174  1.00  0.00     0.179 C 
HETATM    2  C   UNL     1       0.321  -4.353  -1.554  1.00  0.00     0.187 C 
HETATM    3  C   UNL     1      -0.313  -3.085  -2.159  1.00  0.00     0.186 C 
HETATM    4  C   UNL     1       2.124  -2.652  -0.859  1.00  0.00     0.296 C 
HETATM    5  O   UNL     1       0.977  -1.958  -0.357  1.00  0.00    -0.349 OA
HETATM    6  C   UNL     1       1.822  -4.094  -1.322  1.00  0.00     0.303 C 
ENDROOT
BRANCH   3   7
HETATM    7  O   UNL     1      -1.618  -3.333  -2.687  1.00  0.00    -0.349 OA
BRANCH   7   8
HETATM    8  C   UNL     1      -2.701  -3.403  -1.769  1.00  0.00     0.282 C 
HETATM    9  C   UNL     1      -3.669  -4.523  -2.167  1.00  0.00     0.157 C 
HETATM   10  C   UNL     1      -4.917  -4.416  -1.274  1.00  0.00     0.173 C 
HETATM   11  C   UNL     1      -5.497  -2.987  -1.391  1.00  0.00     0.186 C 
HETATM   12  C   UNL     1      -4.423  -1.911  -1.100  1.00  0.00     0.179 C 
HETATM   13  O   UNL     1      -3.296  -2.128  -1.940  1.00  0.00    -0.349 OA
BRANCH   9  14
HETATM   14  N   UNL     1      -2.998  -5.830  -2.020  1.00  0.00    -0.208 NA
HETATM   15  H   UNL     1      -2.027  -5.734  -2.282  1.00  0.00     0.140 HD
BRANCH  14  16
HETATM   16  S   UNL     1      -3.646  -6.993  -3.120  1.00  0.00     0.215 S 
HETATM   17  O   UNL     1      -5.299  -7.213  -2.916  1.00  0.00    -0.211 OA
HETATM   18  O   UNL     1      -3.318  -6.523  -4.699  1.00  0.00    -0.211 OA
BRANCH  16  19
HETATM   19  C   UNL     1      -2.808  -8.562  -2.796  1.00  0.00     0.134 C 
HETATM   20  C   UNL     1      -3.145  -9.104  -1.402  1.00  0.00     0.024 C 
HETATM   21  C   UNL     1      -2.457 -10.445  -1.132  1.00  0.00     0.018 C 
HETATM   22  C   UNL     1      -0.936 -10.323  -1.268  1.00  0.00     0.240 C 
HETATM   23  C   UNL     1      -0.584  -9.794  -2.667  1.00  0.00     0.032 C 
HETATM   24  C   UNL     1      -1.284  -8.462  -2.962  1.00  0.00     0.018 C 
BRANCH  22  25
HETATM   25  N   UNL     1      -0.297 -11.629  -0.996  1.00  0.00     0.133 N 
HETATM   26  C   UNL     1       1.178 -11.634  -1.111  1.00  0.00     0.352 C 
HETATM   27  O   UNL     1       1.848 -12.875  -1.129  1.00  0.00    -0.189 OA
HETATM   28  C   UNL     1       1.861 -10.708  -0.098  1.00  0.00     0.085 C 
HETATM   29  H   UNL     1      -0.674 -12.313  -1.637  1.00  0.00     0.320 HD
ENDBRANCH  22  25
ENDBRANCH  16  19
ENDBRANCH  14  16
ENDBRANCH   9  14
BRANCH  10  30
HETATM   30  O   UNL     1      -4.533  -4.760   0.045  1.00  0.00    -0.391 OA
HETATM   31  H   UNL     1      -3.872  -4.130   0.342  1.00  0.00     0.210 HD
ENDBRANCH  10  30
BRANCH  11  32
HETATM   32  O   UNL     1      -6.731  -2.834  -0.681  1.00  0.00    -0.349 OA
BRANCH  32  33
HETATM   33  C   UNL     1      -6.666  -2.721   0.736  1.00  0.00     0.281 C 
HETATM   34  O   UNL     1      -7.068  -1.376   0.929  1.00  0.00    -0.352 OA
HETATM   35  C   UNL     1      -7.005  -0.990   2.293  1.00  0.00     0.150 C 
HETATM   36  C   UNL     1      -8.007  -1.831   3.104  1.00  0.00     0.067 C 
HETATM   37  C   UNL     1      -7.753  -3.335   2.909  1.00  0.00     0.144 C 
HETATM   38  C   UNL     1      -7.646  -3.692   1.413  1.00  0.00     0.155 C 
BRANCH  35  39
HETATM   39  C   UNL     1      -7.331   0.503   2.412  1.00  0.00     0.196 C 
BRANCH  39  40
HETATM   40  O   UNL     1      -6.303   1.271   1.822  1.00  0.00    -0.398 OA
HETATM   41  H   UNL     1      -6.522   2.200   1.921  1.00  0.00     0.209 HD
ENDBRANCH  39  40
ENDBRANCH  35  39
BRANCH  37  42
HETATM   42  O   UNL     1      -6.568  -3.719   3.579  1.00  0.00    -0.394 OA
HETATM   43  H   UNL     1      -6.679  -3.547   4.517  1.00  0.00     0.210 HD
ENDBRANCH  37  42
BRANCH  38  44
HETATM   44  N   UNL     1      -7.178  -5.079   1.216  1.00  0.00    -0.208 NA
HETATM   45  H   UNL     1      -6.795  -5.168   0.286  1.00  0.00     0.140 HD
BRANCH  44  46
HETATM   46  S   UNL     1      -8.461  -6.232   1.280  1.00  0.00     0.215 S 
HETATM   47  O   UNL     1      -9.374  -6.110   2.685  1.00  0.00    -0.211 OA
HETATM   48  O   UNL     1      -9.447  -6.061  -0.069  1.00  0.00    -0.211 OA
BRANCH  46  49
HETATM   49  C   UNL     1      -7.695  -7.872   1.244  1.00  0.00     0.134 C 
HETATM   50  C   UNL     1      -6.841  -8.121   2.495  1.00  0.00     0.024 C 
HETATM   51  C   UNL     1      -6.198  -9.511   2.481  1.00  0.00     0.018 C 
HETATM   52  C   UNL     1      -5.339  -9.720   1.226  1.00  0.00     0.240 C 
HETATM   53  C   UNL     1      -6.192  -9.488  -0.027  1.00  0.00     0.032 C 
HETATM   54  C   UNL     1      -6.852  -8.103  -0.019  1.00  0.00     0.018 C 
BRANCH  52  55
HETATM   55  N   UNL     1      -4.742 -11.073   1.196  1.00  0.00     0.133 N 
HETATM   56  C   UNL     1      -3.897 -11.383   2.369  1.00  0.00     0.352 C 
HETATM   57  C   UNL     1      -2.674 -10.469   2.476  1.00  0.00     0.085 C 
HETATM   58  O   UNL     1      -3.501 -12.717   2.599  1.00  0.00    -0.189 OA
HETATM   59  H   UNL     1      -5.486 -11.754   1.141  1.00  0.00     0.320 HD
ENDBRANCH  52  55
ENDBRANCH  46  49
ENDBRANCH  44  46
ENDBRANCH  38  44
ENDBRANCH  32  33
ENDBRANCH  11  32
BRANCH  12  60
HETATM   60  C   UNL     1      -4.929  -0.495  -1.407  1.00  0.00     0.198 C 
BRANCH  60  61
HETATM   61  O   UNL     1      -4.053   0.461  -0.849  1.00  0.00    -0.398 OA
HETATM   62  H   UNL     1      -4.391   1.337  -1.048  1.00  0.00     0.209 HD
ENDBRANCH  60  61
ENDBRANCH  12  60
ENDBRANCH   7   8
ENDBRANCH   3   7
BRANCH   1  63
HETATM   63  C   UNL     1      -0.312  -0.552  -1.915  1.00  0.00     0.198 C 
BRANCH  63  64
HETATM   64  O   UNL     1      -0.536   0.491  -0.991  1.00  0.00    -0.398 OA
HETATM   65  H   UNL     1      -0.620   1.315  -1.476  1.00  0.00     0.209 HD
ENDBRANCH  63  64
ENDBRANCH   1  63
BRANCH   2  66
HETATM   66  O   UNL     1      -0.287  -4.726  -0.330  1.00  0.00    -0.391 OA
HETATM   67  H   UNL     1      -0.217  -3.989   0.281  1.00  0.00     0.210 HD
ENDBRANCH   2  66
BRANCH   6  68
HETATM   68  N   UNL     1       2.385  -5.071  -0.373  1.00  0.00     0.090 N 
HETATM   69  H   UNL     1       1.955  -4.950   0.533  1.00  0.00     0.313 HD
HETATM   70  H   UNL     1       2.208  -6.007  -0.709  1.00  0.00     0.313 HD
ENDBRANCH   6  68
BRANCH   4  71
HETATM   71  O   UNL     1       2.526  -1.833  -1.956  1.00  0.00    -0.348 OA
BRANCH  71  72
HETATM   72  C   UNL     1       3.864  -1.327  -1.953  1.00  0.00     0.186 C 
HETATM   73  C   UNL     1       4.213  -0.444  -0.734  1.00  0.00     0.179 C 
HETATM   74  O   UNL     1       5.493   0.131  -0.947  1.00  0.00    -0.349 OA
HETATM   75  C   UNL     1       6.528  -0.832  -1.051  1.00  0.00     0.282 C 
HETATM   76  C   UNL     1       6.331  -1.724  -2.288  1.00  0.00     0.157 C 
HETATM   77  C   UNL     1       4.949  -2.401  -2.198  1.00  0.00     0.173 C 
BRANCH  73  78
HETATM   78  C   UNL     1       3.215   0.709  -0.563  1.00  0.00     0.198 C 
BRANCH  78  79
HETATM   79  O   UNL     1       3.455   1.384   0.654  1.00  0.00    -0.398 OA
HETATM   80  H   UNL     1       2.805   2.084   0.746  1.00  0.00     0.209 HD
ENDBRANCH  78  79
ENDBRANCH  73  78
BRANCH  75  81
HETATM   81  O   UNL     1       7.667   0.007  -1.206  1.00  0.00    -0.349 OA
BRANCH  81  82
HETATM   82  C   UNL     1       8.612   0.059  -0.133  1.00  0.00     0.186 C 
HETATM   83  C   UNL     1       8.031   0.364   1.269  1.00  0.00     0.176 C 
HETATM   84  O   UNL     1       9.091   0.472   2.218  1.00  0.00    -0.379 OA
HETATM   85  C   UNL     1       9.923  -0.677   2.310  1.00  0.00     0.191 C 
HETATM   86  C   UNL     1      10.614  -0.956   0.965  1.00  0.00     0.126 C 
HETATM   87  C   UNL     1       9.534  -1.178  -0.108  1.00  0.00     0.170 C 
BRANCH  83  88
HETATM   88  C   UNL     1       7.285   1.706   1.289  1.00  0.00     0.198 C 
BRANCH  88  89
HETATM   89  O   UNL     1       6.480   1.797   2.445  1.00  0.00    -0.398 OA
HETATM   90  H   UNL     1       7.052   1.777   3.215  1.00  0.00     0.209 HD
ENDBRANCH  88  89
ENDBRANCH  83  88
BRANCH  86  91
HETATM   91  N   UNL     1      11.531  -2.110   1.089  1.00  0.00    -0.210 NA
HETATM   92  H   UNL     1      12.032  -2.032   1.962  1.00  0.00     0.140 HD
BRANCH  91  93
HETATM   93  S   UNL     1      12.753  -2.080  -0.136  1.00  0.00     0.215 S 
HETATM   94  O   UNL     1      12.131  -2.326  -1.677  1.00  0.00    -0.211 OA
HETATM   95  O   UNL     1      13.594  -0.626  -0.093  1.00  0.00    -0.211 OA
BRANCH  93  96
HETATM   96  C   UNL     1      13.930  -3.411   0.203  1.00  0.00     0.134 C 
HETATM   97  C   UNL     1      13.292  -4.800   0.072  1.00  0.00     0.024 C 
HETATM   98  C   UNL     1      14.316  -5.909   0.330  1.00  0.00     0.018 C 
HETATM   99  C   UNL     1      14.961  -5.776   1.718  1.00  0.00     0.240 C 
HETATM  100  C   UNL     1      15.605  -4.391   1.855  1.00  0.00     0.032 C 
HETATM  101  C   UNL     1      14.598  -3.267   1.579  1.00  0.00     0.018 C 
BRANCH  99 102
HETATM  102  N   UNL     1      15.970  -6.831   1.947  1.00  0.00     0.133 N 
HETATM  103  C   UNL     1      15.421  -8.201   1.870  1.00  0.00     0.352 C 
HETATM  104  C   UNL     1      14.430  -8.492   2.999  1.00  0.00     0.085 C 
HETATM  105  O   UNL     1      16.307  -9.291   1.738  1.00  0.00    -0.189 OA
HETATM  106  H   UNL     1      16.704  -6.732   1.261  1.00  0.00     0.320 HD
ENDBRANCH  99 102
ENDBRANCH  93  96
ENDBRANCH  91  93
ENDBRANCH  86  91
BRANCH  87 107
HETATM  107  O   UNL     1       8.853  -2.383   0.186  1.00  0.00    -0.391 OA
HETATM  108  H   UNL     1       8.459  -2.304   1.058  1.00  0.00     0.210 HD
ENDBRANCH  87 107
ENDBRANCH  81  82
ENDBRANCH  75  81
BRANCH  76 109
HETATM  109  N   UNL     1       7.414  -2.725  -2.349  1.00  0.00    -0.208 NA
HETATM  110  H   UNL     1       8.268  -2.312  -2.002  1.00  0.00     0.140 HD
BRANCH 109 111
HETATM  111  S   UNL     1       7.784  -3.203  -3.964  1.00  0.00     0.215 S 
HETATM  112  O   UNL     1       6.413  -3.574  -4.863  1.00  0.00    -0.211 OA
HETATM  113  O   UNL     1       8.658  -1.980  -4.715  1.00  0.00    -0.211 OA
BRANCH 111 114
HETATM  114  C   UNL     1       8.825  -4.677  -3.840  1.00  0.00     0.134 C 
HETATM  115  C   UNL     1       8.043  -5.879  -3.294  1.00  0.00     0.024 C 
HETATM  116  C   UNL     1       8.921  -7.130  -3.187  1.00  0.00     0.018 C 
HETATM  117  C   UNL     1      10.143  -6.882  -2.297  1.00  0.00     0.240 C 
HETATM  118  C   UNL     1      10.947  -5.690  -2.838  1.00  0.00     0.032 C 
HETATM  119  C   UNL     1      10.077  -4.435  -2.982  1.00  0.00     0.018 C 
BRANCH 117 120
HETATM  120  N   UNL     1      10.972  -8.103  -2.228  1.00  0.00     0.133 N 
HETATM  121  C   UNL     1      12.095  -8.007  -1.272  1.00  0.00     0.352 C 
HETATM  122  C   UNL     1      11.615  -8.109   0.180  1.00  0.00     0.085 C 
HETATM  123  O   UNL     1      13.215  -8.848  -1.448  1.00  0.00    -0.189 OA
HETATM  124  H   UNL     1      11.337  -8.296  -3.150  1.00  0.00     0.320 HD
ENDBRANCH 117 120
ENDBRANCH 111 114
ENDBRANCH 109 111
ENDBRANCH  76 109
BRANCH  77 125
HETATM  125  O   UNL     1       5.014  -3.372  -1.170  1.00  0.00    -0.391 OA
HETATM  126  H   UNL     1       5.201  -2.925  -0.342  1.00  0.00     0.210 HD
ENDBRANCH  77 125
ENDBRANCH  71  72
ENDBRANCH   4  71
TORSDOF 40
