REMARK WARNING: 32 MAX_TORS EXCEEDED!!!
REMARK  41 active torsions:
REMARK  status: ('A' for Active; 'I' for Inactive)
REMARK    1  A    between atoms: C_1  and  O_29 
REMARK    2  A    between atoms: C_2  and  C_6 
REMARK    3  A    between atoms: C_3  and  O_9 
REMARK    4  A    between atoms: C_4  and  O_88 
REMARK    5  A    between atoms: C_5  and  O_11 
REMARK    6  A    between atoms: C_6  and  O_7 
REMARK    7  A    between atoms: O_7  and  C_72 
REMARK    8  A    between atoms: O_11  and  C_19 
REMARK    9  A    between atoms: O_13  and  C_17 
REMARK   10  A    between atoms: C_15  and  C_22 
REMARK   11  A    between atoms: O_16  and  C_22 
REMARK   12  A    between atoms: O_16  and  C_78 
REMARK   13  A    between atoms: O_18  and  C_21 
REMARK   14  A    between atoms: O_18  and  C_41 
REMARK   15  A    between atoms: O_20  and  C_23 
REMARK   16  A    between atoms: O_25  and  C_28 
REMARK   17  A    between atoms: C_27  and  C_33 
REMARK   18  A    between atoms: O_29  and  C_32 
REMARK   19  A    between atoms: C_30  and  O_52 
REMARK   20  A    between atoms: O_31  and  C_34 
REMARK   21  A    between atoms: C_33  and  O_57 
REMARK   22  A    between atoms: O_36  and  C_40 
REMARK   23  A    between atoms: C_38  and  C_44 
REMARK   24  A    between atoms: O_39  and  C_44 
REMARK   25  A    between atoms: O_39  and  C_83 
REMARK   26  A    between atoms: O_42  and  C_45 
REMARK   27  A    between atoms: O_47  and  C_51 
REMARK   28  A    between atoms: C_49  and  C_55 
REMARK   29  A    between atoms: O_50  and  C_55 
REMARK   30  A    between atoms: O_50  and  C_61 
REMARK   31  A    between atoms: O_52  and  C_54 
REMARK   32  A    between atoms: C_56  and  O_86 
REMARK   33  A    between atoms: O_57  and  C_67 
REMARK   34  A    between atoms: C_61  and  C_62 
REMARK   35  A    between atoms: C_62  and  O_64 
REMARK   36  A    between atoms: C_67  and  C_68 
REMARK   37  A    between atoms: C_68  and  O_69 
REMARK   38  A    between atoms: C_72  and  C_73 
REMARK   39  A    between atoms: C_73  and  O_74 
REMARK   40  A    between atoms: C_78  and  O_79 
REMARK   41  A    between atoms: C_83  and  O_84 
ROOT
HETATM    1  C   UNL     1      -7.498   0.746   0.309  1.00  0.00     0.187 C 
HETATM    2  C   UNL     1      -6.647   1.613   1.280  1.00  0.00     0.180 C 
HETATM    3  C   UNL     1      -6.587   0.084  -0.749  1.00  0.00     0.183 C 
HETATM    4  C   UNL     1      -5.369  -0.599  -0.079  1.00  0.00     0.204 C 
HETATM    5  C   UNL     1      -4.643   0.459   0.771  1.00  0.00     0.292 C 
HETATM    6  O   UNL     1      -5.518   0.908   1.796  1.00  0.00    -0.348 OA
ENDROOT
BRANCH   1   7
HETATM    7  O   UNL     1      -8.199  -0.255   1.047  1.00  0.00    -0.348 OA
BRANCH   7   8
HETATM    8  C   UNL     1      -9.605  -0.202   0.806  1.00  0.00     0.292 C 
HETATM    9  O   UNL     1     -10.196   0.908   1.463  1.00  0.00    -0.348 OA
HETATM   10  C   UNL     1     -11.552   1.138   1.032  1.00  0.00     0.180 C 
HETATM   11  C   UNL     1     -12.321  -0.162   0.580  1.00  0.00     0.187 C 
HETATM   12  C   UNL     1     -11.828  -1.328   1.458  1.00  0.00     0.183 C 
HETATM   13  C   UNL     1     -10.290  -1.522   1.263  1.00  0.00     0.204 C 
BRANCH  10  14
HETATM   14  C   UNL     1     -11.601   2.245  -0.045  1.00  0.00     0.203 C 
BRANCH  14  15
HETATM   15  O   UNL     1     -11.307   3.526   0.466  1.00  0.00    -0.370 OA
BRANCH  15  16
HETATM   16  C   UNL     1      -9.934   3.630   0.720  1.00  0.00     0.262 C 
BRANCH  16  17
HETATM   17  C   UNL     1      -9.693   4.774   1.649  1.00  0.00     0.321 C 
HETATM   18  O   UNL     1      -9.946   5.914   1.294  1.00  0.00    -0.260 OA
BRANCH  17  19
HETATM   19  O   UNL     1      -9.211   4.553   2.886  1.00  0.00    -0.147 OA
HETATM   20 Na   UNL     1      -8.910   2.693   3.588  1.00  0.00     0.000 Na
ENDBRANCH  17  19
ENDBRANCH  16  17
ENDBRANCH  15  16
ENDBRANCH  14  15
ENDBRANCH  10  14
BRANCH  11  21
HETATM   21  O   UNL     1     -13.726  -0.010   0.771  1.00  0.00    -0.348 OA
BRANCH  21  22
HETATM   22  C   UNL     1     -14.455   0.318  -0.404  1.00  0.00     0.292 C 
HETATM   23  O   UNL     1     -14.920   1.675  -0.330  1.00  0.00    -0.351 OA
HETATM   24  C   UNL     1     -16.306   1.790  -0.079  1.00  0.00     0.151 C 
HETATM   25  C   UNL     1     -17.147   1.146  -1.211  1.00  0.00     0.068 C 
HETATM   26  C   UNL     1     -16.505  -0.168  -1.714  1.00  0.00     0.154 C 
HETATM   27  C   UNL     1     -15.559  -0.759  -0.657  1.00  0.00     0.202 C 
BRANCH  24  28
HETATM   28  C   UNL     1     -16.695   3.268   0.092  1.00  0.00     0.200 C 
BRANCH  28  29
HETATM   29  O   UNL     1     -15.955   3.896   1.123  1.00  0.00    -0.379 OA
BRANCH  29  30
HETATM   30  C   UNL     1     -16.487   3.592   2.401  1.00  0.00     0.281 C 
BRANCH  30  31
HETATM   31  C   UNL     1     -16.149   4.683   3.374  1.00  0.00     0.313 C 
HETATM   32  O   UNL     1     -15.520   5.668   3.019  1.00  0.00    -0.260 OA
BRANCH  31  33
HETATM   33  O   UNL     1     -16.552   4.580   4.654  1.00  0.00    -0.148 OA
HETATM   34 Na   UNL     1     -17.602   2.968   5.256  1.00  0.00     0.000 Na
ENDBRANCH  31  33
ENDBRANCH  30  31
ENDBRANCH  29  30
ENDBRANCH  28  29
ENDBRANCH  24  28
BRANCH  26  35
HETATM   35  O   UNL     1     -17.470  -1.081  -2.172  1.00  0.00    -0.393 OA
HETATM   36  H   UNL     1     -18.078  -1.281  -1.413  1.00  0.00     0.210 HD
ENDBRANCH  26  35
BRANCH  27  37
HETATM   37  O   UNL     1     -16.256  -1.055   0.529  1.00  0.00    -0.388 OA
HETATM   38  H   UNL     1     -16.672  -1.948   0.407  1.00  0.00     0.210 HD
ENDBRANCH  27  37
ENDBRANCH  21  22
ENDBRANCH  11  21
BRANCH  12  39
HETATM   39  O   UNL     1     -12.175  -1.099   2.808  1.00  0.00    -0.390 OA
HETATM   40  H   UNL     1     -11.595  -0.389   3.182  1.00  0.00     0.210 HD
ENDBRANCH  12  39
BRANCH  13  41
HETATM   41  O   UNL     1      -9.709  -2.092   2.411  1.00  0.00    -0.388 OA
HETATM   42  H   UNL     1      -9.530  -1.363   3.060  1.00  0.00     0.210 HD
ENDBRANCH  13  41
ENDBRANCH   7   8
ENDBRANCH   1   7
BRANCH   2  43
HETATM   43  C   UNL     1      -6.256   3.010   0.710  1.00  0.00     0.203 C 
BRANCH  43  44
HETATM   44  O   UNL     1      -5.333   3.722   1.512  1.00  0.00    -0.370 OA
BRANCH  44  45
HETATM   45  C   UNL     1      -5.783   3.786   2.843  1.00  0.00     0.262 C 
BRANCH  45  46
HETATM   46  C   UNL     1      -5.702   5.175   3.387  1.00  0.00     0.321 C 
HETATM   47  O   UNL     1      -5.348   6.108   2.684  1.00  0.00    -0.260 OA
BRANCH  46  48
HETATM   48  O   UNL     1      -6.011   5.390   4.679  1.00  0.00    -0.147 OA
HETATM   49 Na   UNL     1      -6.475   3.810   5.845  1.00  0.00     0.000 Na
ENDBRANCH  46  48
ENDBRANCH  45  46
ENDBRANCH  44  45
ENDBRANCH  43  44
ENDBRANCH   2  43
BRANCH   3  50
HETATM   50  O   UNL     1      -7.328  -0.832  -1.513  1.00  0.00    -0.390 OA
HETATM   51  H   UNL     1      -6.746  -1.117  -2.266  1.00  0.00     0.210 HD
ENDBRANCH   3  50
BRANCH   4  52
HETATM   52  O   UNL     1      -5.771  -1.662   0.749  1.00  0.00    -0.388 OA
HETATM   53  H   UNL     1      -5.940  -2.441   0.158  1.00  0.00     0.210 HD
ENDBRANCH   4  52
BRANCH   5  54
HETATM   54  O   UNL     1      -3.490  -0.107   1.382  1.00  0.00    -0.348 OA
BRANCH  54  55
HETATM   55  C   UNL     1      -2.266   0.260   0.741  1.00  0.00     0.187 C 
HETATM   56  C   UNL     1      -1.502   1.355   1.554  1.00  0.00     0.180 C 
HETATM   57  O   UNL     1      -0.097   1.147   1.674  1.00  0.00    -0.348 OA
HETATM   58  C   UNL     1       0.592   0.704   0.519  1.00  0.00     0.292 C 
HETATM   59  C   UNL     1      -0.113  -0.501  -0.181  1.00  0.00     0.204 C 
HETATM   60  C   UNL     1      -1.369  -0.972   0.582  1.00  0.00     0.183 C 
BRANCH  56  61
HETATM   61  C   UNL     1      -1.800   2.781   1.049  1.00  0.00     0.208 C 
BRANCH  61  62
HETATM   62  O   UNL     1      -0.972   3.747   1.674  1.00  0.00    -0.327 OA
BRANCH  62  63
HETATM   63  C   UNL     1      -1.370   4.162   2.975  1.00  0.00     0.339 C 
HETATM   64  C   UNL     1      -0.231   3.865   3.939  1.00  0.00     0.115 C 
HETATM   65  O   UNL     1      -1.600   5.537   2.951  1.00  0.00    -0.163 OA
BRANCH  63  66
HETATM   66  O   UNL     1      -2.527   3.527   3.447  1.00  0.00    -0.163 OA
HETATM   67 Na   UNL     1      -2.750   4.197   5.358  1.00  0.00     0.000 Na
ENDBRANCH  63  66
ENDBRANCH  62  63
ENDBRANCH  61  62
ENDBRANCH  56  61
BRANCH  58  68
HETATM   68  O   UNL     1       1.885   0.311   0.965  1.00  0.00    -0.348 OA
BRANCH  68  69
HETATM   69  C   UNL     1       2.944   0.748   0.124  1.00  0.00     0.187 C 
HETATM   70  C   UNL     1       3.799   1.857   0.843  1.00  0.00     0.177 C 
HETATM   71  O   UNL     1       5.121   2.036   0.310  1.00  0.00    -0.378 OA
HETATM   72  C   UNL     1       5.228   1.599  -1.026  1.00  0.00     0.202 C 
HETATM   73  C   UNL     1       5.020   0.064  -1.134  1.00  0.00     0.173 C 
HETATM   74  C   UNL     1       3.889  -0.428  -0.181  1.00  0.00     0.180 C 
BRANCH  70  75
HETATM   75  C   UNL     1       3.064   3.207   0.901  1.00  0.00     0.208 C 
BRANCH  75  76
HETATM   76  O   UNL     1       3.875   4.226   1.463  1.00  0.00    -0.327 OA
BRANCH  76  77
HETATM   77  C   UNL     1       4.017   4.201   2.881  1.00  0.00     0.339 C 
HETATM   78  C   UNL     1       5.474   3.909   3.220  1.00  0.00     0.115 C 
HETATM   79  O   UNL     1       3.688   5.465   3.371  1.00  0.00    -0.163 OA
BRANCH  77  80
HETATM   80  O   UNL     1       3.199   3.256   3.518  1.00  0.00    -0.163 OA
HETATM   81 Na   UNL     1       3.324   3.699   5.504  1.00  0.00     0.000 Na
ENDBRANCH  77  80
ENDBRANCH  76  77
ENDBRANCH  75  76
ENDBRANCH  70  75
BRANCH  73  82
HETATM   82  O   UNL     1       6.203  -0.673  -0.939  1.00  0.00    -0.391 OA
HETATM   83  H   UNL     1       6.724  -0.239  -0.214  1.00  0.00     0.210 HD
ENDBRANCH  73  82
BRANCH  74  84
HETATM   84  O   UNL     1       4.387  -0.977   1.021  1.00  0.00    -0.390 OA
HETATM   85  H   UNL     1       5.099  -0.392   1.384  1.00  0.00     0.210 HD
ENDBRANCH  74  84
ENDBRANCH  68  69
ENDBRANCH  58  68
BRANCH  59  86
HETATM   86  O   UNL     1       0.761  -1.563  -0.469  1.00  0.00    -0.388 OA
HETATM   87  H   UNL     1       1.017  -1.985   0.391  1.00  0.00     0.210 HD
ENDBRANCH  59  86
BRANCH  60  88
HETATM   88  O   UNL     1      -1.016  -1.507   1.833  1.00  0.00    -0.390 OA
HETATM   89  H   UNL     1      -1.784  -2.056   2.136  1.00  0.00     0.210 HD
ENDBRANCH  60  88
ENDBRANCH  54  55
ENDBRANCH   5  54
TORSDOF 41
