REMARK  5 active torsions:
REMARK  status: ('A' for Active; 'I' for Inactive)
REMARK    1  A    between atoms: C_2  and  O_55 
REMARK       I    between atoms: C_3  and  O_22 
REMARK       I    between atoms: N_4  and  C_10 
REMARK       I    between atoms: O_5  and  C_11 
REMARK       I    between atoms: C_7  and  C_15 
REMARK       I    between atoms: C_9  and  O_22 
REMARK       I    between atoms: C_15  and  O_16 
REMARK       I    between atoms: O_16  and  C_17 
REMARK       I    between atoms: C_17  and  C_18 
REMARK       I    between atoms: C_18  and  O_20 
REMARK       I    between atoms: C_23  and  O_24 
REMARK       I    between atoms: C_26  and  N_27 
REMARK    2  A    between atoms: C_30  and  O_40 
REMARK       I    between atoms: C_32  and  C_33 
REMARK       I    between atoms: C_33  and  O_34 
REMARK       I    between atoms: O_34  and  C_35 
REMARK       I    between atoms: C_35  and  C_36 
REMARK       I    between atoms: C_36  and  O_38 
REMARK    3  A    between atoms: O_40  and  C_41 
REMARK       I    between atoms: C_42  and  C_43 
REMARK       I    between atoms: C_43  and  O_44 
REMARK       I    between atoms: C_46  and  O_47 
REMARK       I    between atoms: C_49  and  N_50 
REMARK    4  A    between atoms: C_53  and  O_55 
REMARK       I    between atoms: C_56  and  O_57 
REMARK       I    between atoms: C_59  and  N_60 
REMARK    5  A    between atoms: C_63  and  O_64 
REMARK       I    between atoms: O_64  and  C_73 
REMARK       I    between atoms: C_66  and  C_67 
REMARK       I    between atoms: C_67  and  O_68 
REMARK       I    between atoms: O_68  and  C_69 
REMARK       I    between atoms: C_69  and  C_70 
REMARK       I    between atoms: C_70  and  O_71 
REMARK       I    between atoms: C_74  and  O_75 
REMARK       I    between atoms: C_77  and  N_78 
REMARK       I    between atoms: C_83  and  C_84 
REMARK       I    between atoms: C_84  and  O_85 
REMARK       I    between atoms: O_85  and  C_86 
REMARK       I    between atoms: C_86  and  C_87 
REMARK       I    between atoms: C_87  and  O_89 
ROOT
HETATM    1  C   UNL     1       2.006  -1.646   1.232  1.00  0.00     0.186 C 
HETATM    2  C   UNL     1       3.086  -0.537   1.267  1.00  0.00     0.179 C 
HETATM    3  C   UNL     1       2.462   0.858   1.486  1.00  0.00     0.198 C 
HETATM    4  O   UNL     1       3.478   1.866   1.441  1.00  0.00    -0.398 OA
HETATM    5  H   UNL     1       2.997   2.711   1.569  1.00  0.00     0.209 HD
HETATM    6  C   UNL     1       2.704  -2.967   0.840  1.00  0.00     0.187 C 
HETATM    7  O   UNL     1       3.140  -2.926  -0.525  1.00  0.00    -0.391 OA
HETATM    8  H   UNL     1       2.322  -2.812  -1.054  1.00  0.00     0.210 HD
HETATM    9  C   UNL     1       3.877  -3.265   1.806  1.00  0.00     0.303 C 
HETATM   10  N   UNL     1       4.725  -4.340   1.254  1.00  0.00     0.090 N 
HETATM   11  H   UNL     1       5.402  -4.593   1.977  1.00  0.00     0.313 HD
HETATM   12  H   UNL     1       4.126  -5.158   1.116  1.00  0.00     0.313 HD
HETATM   13  C   UNL     1       4.743  -2.033   2.204  1.00  0.00     0.296 C 
HETATM   14  O   UNL     1       4.045  -0.774   2.312  1.00  0.00    -0.349 OA
ENDROOT
BRANCH   1  15
HETATM   15  O   UNL     1       1.379  -1.797   2.528  1.00  0.00    -0.348 OA
BRANCH  15  16
HETATM   16  C   UNL     1      -0.012  -1.401   2.580  1.00  0.00     0.297 C 
HETATM   17  C   UNL     1      -0.991  -2.560   2.218  1.00  0.00     0.303 C 
HETATM   18  C   UNL     1      -2.470  -2.070   2.029  1.00  0.00     0.188 C 
HETATM   19  N   UNL     1      -0.488  -3.330   1.059  1.00  0.00     0.090 N 
HETATM   20  C   UNL     1      -2.600  -0.562   2.386  1.00  0.00     0.196 C 
HETATM   21  O   UNL     1      -2.949  -2.364   0.709  1.00  0.00    -0.391 OA
HETATM   22  O   UNL     1      -3.937  -0.027   2.613  1.00  0.00    -0.348 OA
HETATM   23  C   UNL     1      -1.539   0.198   1.617  1.00  0.00     0.149 C 
HETATM   24  C   UNL     1      -4.846   0.466   1.596  1.00  0.00     0.296 C 
HETATM   25  O   UNL     1      -4.365   1.679   0.979  1.00  0.00    -0.351 OA
HETATM   26  C   UNL     1      -5.412  -0.594   0.611  1.00  0.00     0.301 C 
HETATM   27  C   UNL     1      -4.859   1.895  -0.362  1.00  0.00     0.155 C 
HETATM   28  C   UNL     1      -6.289   1.464  -0.497  1.00  0.00     0.057 C 
HETATM   29  C   UNL     1      -4.709   3.386  -0.732  1.00  0.00     0.200 C 
HETATM   30  C   UNL     1      -6.583   0.021  -0.201  1.00  0.00     0.163 C 
HETATM   31  O   UNL     1      -7.834  -0.071   0.497  1.00  0.00    -0.393 OA
HETATM   32  H   UNL     1      -7.725   0.455   1.317  1.00  0.00     0.210 HD
HETATM   33  O   UNL     1      -3.321   3.745  -0.666  1.00  0.00    -0.378 OA
HETATM   34  C   UNL     1      -3.176   5.108  -1.093  1.00  0.00     0.277 C 
HETATM   35  C   UNL     1      -1.741   5.565  -1.015  1.00  0.00     0.164 C 
HETATM   36  O   UNL     1      -1.459   6.695  -1.411  1.00  0.00    -0.648 OA
HETATM   37  O   UNL     1      -0.747   4.793  -0.513  1.00  0.00    -0.775 OA
HETATM   38  H   UNL     1      -0.913   3.934  -0.171  1.00  0.00     0.167 HD
HETATM   39  N   UNL     1      -5.920  -1.781   1.332  1.00  0.00     0.090 N 
HETATM   40  H   UNL     1      -6.141  -2.488   0.629  1.00  0.00     0.313 HD
HETATM   41  H   UNL     1      -5.170  -2.161   1.907  1.00  0.00     0.313 HD
HETATM   42  O   UNL     1      -0.282  -0.267   1.812  1.00  0.00    -0.340 OA
HETATM   43  C   UNL     1      -1.767   0.824   0.268  1.00  0.00     0.212 C 
HETATM   44  O   UNL     1      -0.590   0.744  -0.552  1.00  0.00    -0.378 OA
HETATM   45  C   UNL     1      -0.911   1.259  -1.852  1.00  0.00     0.277 C 
HETATM   46  C   UNL     1       0.324   1.230  -2.710  1.00  0.00     0.164 C 
HETATM   47  O   UNL     1       0.765   2.272  -3.191  1.00  0.00    -0.648 OA
HETATM   48  O   UNL     1       0.947   0.059  -2.974  1.00  0.00    -0.775 OA
HETATM   49  H   UNL     1       0.620  -0.747  -2.618  1.00  0.00     0.167 HD
HETATM   50  H   UNL     1      -2.407  -1.832   0.094  1.00  0.00     0.210 HD
HETATM   51  H   UNL     1      -0.479  -2.724   0.237  1.00  0.00     0.313 HD
HETATM   52  H   UNL     1      -1.143  -4.094   0.876  1.00  0.00     0.313 HD
ENDBRANCH  15  16
ENDBRANCH   1  15
BRANCH  13  53
HETATM   53  O   UNL     1       6.040  -1.968   1.565  1.00  0.00    -0.348 OA
BRANCH  53  54
HETATM   54  C   UNL     1       6.094  -1.513   0.199  1.00  0.00     0.186 C 
HETATM   55  C   UNL     1       7.103  -2.447  -0.514  1.00  0.00     0.187 C 
HETATM   56  O   UNL     1       6.916  -2.493  -1.937  1.00  0.00    -0.391 OA
HETATM   57  C   UNL     1       8.554  -2.108  -0.090  1.00  0.00     0.303 C 
HETATM   58  H   UNL     1       7.255  -1.656  -2.301  1.00  0.00     0.210 HD
HETATM   59  N   UNL     1       9.511  -2.882  -0.902  1.00  0.00     0.090 N 
HETATM   60  C   UNL     1       8.873  -0.592  -0.155  1.00  0.00     0.296 C 
HETATM   61  H   UNL     1      10.434  -2.750  -0.482  1.00  0.00     0.313 HD
HETATM   62  H   UNL     1       9.276  -3.870  -0.785  1.00  0.00     0.313 HD
HETATM   63  O   UNL     1       7.901   0.143   0.621  1.00  0.00    -0.349 OA
HETATM   64  C   UNL     1       6.528  -0.020   0.203  1.00  0.00     0.180 C 
HETATM   65  C   UNL     1       6.215   0.741  -1.110  1.00  0.00     0.203 C 
HETATM   66  O   UNL     1       4.796   0.889  -1.267  1.00  0.00    -0.378 OA
HETATM   67  C   UNL     1       4.513   1.507  -2.533  1.00  0.00     0.277 C 
HETATM   68  C   UNL     1       4.754   0.545  -3.666  1.00  0.00     0.164 C 
HETATM   69  O   UNL     1       5.551   0.832  -4.558  1.00  0.00    -0.648 OA
HETATM   70  O   UNL     1       4.131  -0.654  -3.692  1.00  0.00    -0.775 OA
HETATM   71  H   UNL     1       3.546  -0.903  -2.999  1.00  0.00     0.167 HD
BRANCH  60  72
HETATM   72  O   UNL     1       8.982  -0.120  -1.516  1.00  0.00    -0.348 OA
HETATM   73  C   UNL     1       9.949   0.931  -1.778  1.00  0.00     0.186 C 
HETATM   74  C   UNL     1      11.381   0.400  -2.057  1.00  0.00     0.186 C 
HETATM   75  C   UNL     1       9.991   2.097  -0.741  1.00  0.00     0.178 C 
HETATM   76  O   UNL     1      11.374  -0.759  -2.903  1.00  0.00    -0.391 OA
HETATM   77  C   UNL     1      12.169   0.150  -0.749  1.00  0.00     0.289 C 
HETATM   78  H   UNL     1      10.964  -1.475  -2.378  1.00  0.00     0.210 HD
HETATM   79  N   UNL     1      13.612   0.087  -1.048  1.00  0.00     0.088 N 
HETATM   80  C   UNL     1      11.914   1.300   0.254  1.00  0.00     0.167 C 
HETATM   81  H   UNL     1      13.764  -0.732  -1.641  1.00  0.00     0.313 HD
HETATM   82  H   UNL     1      14.094  -0.099  -0.165  1.00  0.00     0.313 HD
HETATM   83  O   UNL     1      11.340   2.451  -0.386  1.00  0.00    -0.361 OA
HETATM   84  C   UNL     1       9.293   3.349  -1.325  1.00  0.00     0.203 C 
HETATM   85  O   UNL     1       9.070   4.327  -0.295  1.00  0.00    -0.378 OA
HETATM   86  C   UNL     1       7.821   4.047   0.362  1.00  0.00     0.277 C 
HETATM   87  C   UNL     1       7.683   4.931   1.570  1.00  0.00     0.164 C 
HETATM   88  O   UNL     1       7.684   6.154   1.442  1.00  0.00    -0.648 OA
HETATM   89  O   UNL     1       7.543   4.392   2.802  1.00  0.00    -0.775 OA
HETATM   90  H   UNL     1       7.529   3.459   2.918  1.00  0.00     0.167 HD
ENDBRANCH  60  72
ENDBRANCH  53  54
ENDBRANCH  13  53
TORSDOF 40
