REMARK WARNING: 32 MAX_TORS EXCEEDED!!!
REMARK  36 active torsions:
REMARK  status: ('A' for Active; 'I' for Inactive)
REMARK    1  A    between atoms: C_1  and  O_66 
REMARK    2  A    between atoms: C_2  and  O_47 
REMARK    3  A    between atoms: C_4  and  O_40 
REMARK    4  A    between atoms: C_5  and  O_15 
REMARK    5  A    between atoms: C_7  and  C_17 
REMARK    6  A    between atoms: C_8  and  O_9 
REMARK    7  A    between atoms: C_11  and  N_12 
REMARK    8  A    between atoms: N_12  and  C_20 
REMARK    9  A    between atoms: C_14  and  O_15 
REMARK   10  A    between atoms: C_17  and  O_18 
REMARK   11  A    between atoms: C_20  and  O_21 
REMARK   12  A    between atoms: C_20  and  C_23 
REMARK   13  A    between atoms: C_23  and  N_24 
REMARK   14  A    between atoms: C_27  and  C_28 
REMARK   15  A    between atoms: C_28  and  O_29 
REMARK   16  A    between atoms: C_32  and  O_40 
REMARK   17  A    between atoms: C_33  and  N_34 
REMARK   18  A    between atoms: C_37  and  O_38 
REMARK   19  A    between atoms: C_41  and  C_42 
REMARK   20  A    between atoms: C_42  and  O_43 
REMARK   21  A    between atoms: C_46  and  O_47 
REMARK   22  A    between atoms: C_48  and  N_49 
REMARK       I    between atoms: N_49  and  C_51 
REMARK   23  A    between atoms: C_51  and  C_52 
REMARK   24  A    between atoms: C_52  and  N_54 
REMARK   25  A    between atoms: C_56  and  O_57 
REMARK   26  A    between atoms: C_59  and  O_60 
REMARK   27  A    between atoms: C_62  and  N_63 
REMARK   28  A    between atoms: C_65  and  O_66 
REMARK   29  A    between atoms: C_68  and  C_69 
REMARK   30  A    between atoms: C_69  and  O_70 
REMARK   31  A    between atoms: C_73  and  C_74 
REMARK   32  A    between atoms: C_74  and  O_75 
REMARK   33  A    between atoms: C_79  and  O_80 
REMARK   34  A    between atoms: C_82  and  N_83 
REMARK       I    between atoms: N_83  and  C_85 
REMARK   35  A    between atoms: C_85  and  C_87 
REMARK   36  A    between atoms: C_87  and  N_88 
ROOT
HETATM    1  C   UNL     1     -94.810 -23.869 112.674  1.00  0.00     0.186 C 
HETATM    2  C   UNL     1     -95.992 -23.081 113.296  1.00  0.00     0.179 C 
HETATM    3  O   UNL     1     -97.202 -23.855 113.223  1.00  0.00    -0.349 OA
HETATM    4  C   UNL     1     -97.088 -25.027 114.055  1.00  0.00     0.297 C 
HETATM    5  C   UNL     1     -95.938 -25.948 113.572  1.00  0.00     0.309 C 
HETATM    6  C   UNL     1     -94.619 -25.139 113.536  1.00  0.00     0.188 C 
ENDROOT
BRANCH   1   7
HETATM    7  O   UNL     1     -95.087 -24.249 111.311  1.00  0.00    -0.348 OA
BRANCH   7   8
HETATM    8  C   UNL     1     -94.336 -23.454 110.377  1.00  0.00     0.296 C 
HETATM    9  O   UNL     1     -95.055 -23.470 109.136  1.00  0.00    -0.349 OA
HETATM   10  C   UNL     1     -94.566 -22.415 108.283  1.00  0.00     0.179 C 
HETATM   11  C   UNL     1     -93.009 -22.316 108.293  1.00  0.00     0.186 C 
HETATM   12  C   UNL     1     -92.391 -23.671 108.731  1.00  0.00     0.187 C 
HETATM   13  C   UNL     1     -92.920 -24.045 110.141  1.00  0.00     0.303 C 
BRANCH  10  14
HETATM   14  C   UNL     1     -95.150 -22.655 106.869  1.00  0.00     0.198 C 
BRANCH  14  15
HETATM   15  O   UNL     1     -96.580 -22.716 106.938  1.00  0.00    -0.398 OA
HETATM   16  H   UNL     1     -96.870 -22.878 106.016  1.00  0.00     0.209 HD
ENDBRANCH  14  15
ENDBRANCH  10  14
BRANCH  11  17
HETATM   17  O   UNL     1     -92.520 -21.881 107.008  1.00  0.00    -0.348 OA
BRANCH  17  18
HETATM   18  C   UNL     1     -91.208 -21.293 107.094  1.00  0.00     0.296 C 
HETATM   19  C   UNL     1     -90.618 -21.116 105.671  1.00  0.00     0.307 C 
HETATM   20  C   UNL     1     -91.417 -20.047 104.885  1.00  0.00     0.163 C 
HETATM   21  C   UNL     1     -91.543 -18.814 105.732  1.00  0.00     0.057 C 
HETATM   22  C   UNL     1     -91.871 -18.949 107.196  1.00  0.00     0.155 C 
HETATM   23  O   UNL     1     -91.176 -20.047 107.827  1.00  0.00    -0.351 OA
BRANCH  19  24
HETATM   24  N   UNL     1     -89.195 -20.706 105.789  1.00  0.00     0.125 N 
HETATM   25  H   UNL     1     -88.759 -21.291 106.506  1.00  0.00     0.320 HD
BRANCH  24  26
HETATM   26  C   UNL     1     -88.441 -20.945 104.535  1.00  0.00     0.369 C 
BRANCH  26  27
HETATM   27  O   UNL     1     -88.333 -22.355 104.292  1.00  0.00    -0.367 OA
HETATM   28  H   UNL     1     -88.023 -22.434 103.365  1.00  0.00     0.212 HD
ENDBRANCH  26  27
BRANCH  26  29
HETATM   29  C   UNL     1     -87.051 -20.280 104.677  1.00  0.00     0.171 C 
BRANCH  29  30
HETATM   30  N   UNL     1     -86.254 -20.402 103.432  1.00  0.00    -0.228 NA
HETATM   31  C   UNL     1     -85.317 -19.262 103.344  1.00  0.00     0.130 C 
HETATM   32 CL   UNL     1     -85.305 -21.807 103.507  1.00  0.00    -0.022 Cl
ENDBRANCH  29  30
ENDBRANCH  26  29
ENDBRANCH  24  26
ENDBRANCH  19  24
BRANCH  20  33
HETATM   33  O   UNL     1     -92.711 -20.539 104.513  1.00  0.00    -0.393 OA
HETATM   34  H   UNL     1     -93.120 -19.817 103.991  1.00  0.00     0.210 HD
ENDBRANCH  20  33
BRANCH  22  35
HETATM   35  C   UNL     1     -93.402 -19.010 107.420  1.00  0.00     0.196 C 
BRANCH  35  36
HETATM   36  O   UNL     1     -94.018 -17.778 107.027  1.00  0.00    -0.398 OA
HETATM   37  H   UNL     1     -93.648 -17.099 107.630  1.00  0.00     0.209 HD
ENDBRANCH  35  36
ENDBRANCH  22  35
ENDBRANCH  17  18
ENDBRANCH  11  17
BRANCH  12  38
HETATM   38  O   UNL     1     -92.723 -24.714 107.803  1.00  0.00    -0.391 OA
HETATM   39  H   UNL     1     -92.292 -24.462 106.960  1.00  0.00     0.210 HD
ENDBRANCH  12  38
BRANCH  13  40
HETATM   40  N   UNL     1     -91.993 -23.552 111.180  1.00  0.00     0.090 N 
HETATM   41  H   UNL     1     -91.080 -23.977 111.006  1.00  0.00     0.313 HD
HETATM   42  H   UNL     1     -91.885 -22.544 111.049  1.00  0.00     0.313 HD
ENDBRANCH  13  40
ENDBRANCH   7   8
ENDBRANCH   1   7
BRANCH   2  43
HETATM   43  C   UNL     1     -96.210 -21.692 112.643  1.00  0.00     0.198 C 
BRANCH  43  44
HETATM   44  O   UNL     1     -97.109 -21.730 111.524  1.00  0.00    -0.398 OA
HETATM   45  H   UNL     1     -96.662 -22.260 110.836  1.00  0.00     0.209 HD
ENDBRANCH  43  44
ENDBRANCH   2  43
BRANCH   6  46
HETATM   46  O   UNL     1     -93.526 -25.933 113.052  1.00  0.00    -0.391 OA
HETATM   47  H   UNL     1     -93.797 -26.257 112.167  1.00  0.00     0.210 HD
ENDBRANCH   6  46
BRANCH   5  48
HETATM   48  N   UNL     1     -95.762 -27.100 114.493  1.00  0.00     0.128 N 
HETATM   49  H   UNL     1     -96.601 -27.203 115.068  1.00  0.00     0.320 HD
HETATM   50  C   UNL     1     -95.601 -28.360 113.735  1.00  0.00     0.407 C 
HETATM   51  O   UNL     1     -96.834 -28.723 113.102  1.00  0.00    -0.201 OA
BRANCH  50  52
HETATM   52  C   UNL     1     -95.178 -29.484 114.707  1.00  0.00     0.175 C 
BRANCH  52  53
HETATM   53  N   UNL     1     -95.051 -30.778 113.997  1.00  0.00    -0.228 NA
HETATM   54 CL   UNL     1     -93.662 -30.748 113.025  1.00  0.00    -0.022 Cl
HETATM   55  C   UNL     1     -94.867 -31.851 114.997  1.00  0.00     0.130 C 
ENDBRANCH  52  53
ENDBRANCH  50  52
ENDBRANCH   5  48
BRANCH   4  56
HETATM   56  O   UNL     1     -98.326 -25.752 113.961  1.00  0.00    -0.348 OA
BRANCH  56  57
HETATM   57  C   UNL     1     -99.358 -25.094 114.721  1.00  0.00     0.186 C 
HETATM   58  C   UNL     1    -100.693 -25.327 113.976  1.00  0.00     0.187 C 
HETATM   59  C   UNL     1    -101.873 -24.962 114.908  1.00  0.00     0.303 C 
HETATM   60  C   UNL     1    -101.841 -25.909 116.143  1.00  0.00     0.296 C 
HETATM   61  O   UNL     1    -100.558 -26.554 116.330  1.00  0.00    -0.349 OA
HETATM   62  C   UNL     1     -99.417 -25.685 116.158  1.00  0.00     0.179 C 
BRANCH  58  63
HETATM   63  O   UNL     1    -100.726 -24.594 112.743  1.00  0.00    -0.391 OA
HETATM   64  H   UNL     1    -100.526 -23.662 112.971  1.00  0.00     0.210 HD
ENDBRANCH  58  63
BRANCH  59  65
HETATM   65  N   UNL     1    -101.834 -23.533 115.294  1.00  0.00     0.090 N 
HETATM   66  H   UNL     1    -102.688 -23.337 115.821  1.00  0.00     0.313 HD
HETATM   67  H   UNL     1    -101.906 -22.979 114.440  1.00  0.00     0.313 HD
ENDBRANCH  59  65
BRANCH  60  68
HETATM   68  O   UNL     1    -102.243 -25.215 117.341  1.00  0.00    -0.348 OA
BRANCH  68  69
HETATM   69  C   UNL     1    -102.860 -26.000 118.390  1.00  0.00     0.186 C 
HETATM   70  C   UNL     1    -104.410 -26.012 118.290  1.00  0.00     0.176 C 
HETATM   71  O   UNL     1    -104.981 -26.570 119.492  1.00  0.00    -0.379 OA
HETATM   72  C   UNL     1    -104.500 -27.900 119.765  1.00  0.00     0.206 C 
HETATM   73  C   UNL     1    -102.966 -27.917 119.989  1.00  0.00     0.278 C 
HETATM   74  C   UNL     1    -102.267 -27.401 118.706  1.00  0.00     0.185 C 
BRANCH  70  75
HETATM   75  C   UNL     1    -104.994 -26.673 117.016  1.00  0.00     0.198 C 
BRANCH  75  76
HETATM   76  O   UNL     1    -106.423 -26.590 117.048  1.00  0.00    -0.398 OA
HETATM   77  H   UNL     1    -106.718 -27.007 116.212  1.00  0.00     0.209 HD
ENDBRANCH  75  76
ENDBRANCH  70  75
BRANCH  73  78
HETATM   78  N   UNL     1    -102.449 -29.270 120.314  1.00  0.00     0.126 N 
HETATM   79  H   UNL     1    -101.437 -29.162 120.411  1.00  0.00     0.320 HD
HETATM   80  C   UNL     1    -102.954 -29.768 121.615  1.00  0.00     0.407 C 
HETATM   81  O   UNL     1    -104.183 -30.475 121.419  1.00  0.00    -0.201 OA
BRANCH  80  82
HETATM   82  C   UNL     1    -101.921 -30.744 122.225  1.00  0.00     0.175 C 
BRANCH  82  83
HETATM   83  N   UNL     1    -102.443 -31.388 123.453  1.00  0.00    -0.228 NA
HETATM   84  C   UNL     1    -101.493 -32.440 123.871  1.00  0.00     0.130 C 
HETATM   85 CL   UNL     1    -102.510 -30.240 124.700  1.00  0.00    -0.022 Cl
ENDBRANCH  82  83
ENDBRANCH  80  82
ENDBRANCH  73  78
BRANCH  74  86
HETATM   86  O   UNL     1    -102.443 -28.358 117.650  1.00  0.00    -0.391 OA
HETATM   87  H   UNL     1    -101.912 -29.141 117.907  1.00  0.00     0.210 HD
ENDBRANCH  74  86
ENDBRANCH  68  69
ENDBRANCH  60  68
BRANCH  62  88
HETATM   88  C   UNL     1     -99.353 -24.583 117.245  1.00  0.00     0.198 C 
BRANCH  88  89
HETATM   89  O   UNL     1     -98.057 -23.978 117.262  1.00  0.00    -0.398 OA
HETATM   90  H   UNL     1     -98.104 -23.302 117.971  1.00  0.00     0.209 HD
ENDBRANCH  88  89
ENDBRANCH  62  88
ENDBRANCH  56  57
ENDBRANCH   4  56
TORSDOF 36
