REMARK WARNING: 32 MAX_TORS EXCEEDED!!!
REMARK  38 active torsions:
REMARK  status: ('A' for Active; 'I' for Inactive)
REMARK    1  A    between atoms: C_1  and  O_30 
REMARK    2  A    between atoms: C_2  and  C_6 
REMARK    3  A    between atoms: C_3  and  O_9 
REMARK    4  A    between atoms: C_4  and  N_11 
REMARK    5  A    between atoms: C_5  and  O_12 
REMARK    6  A    between atoms: C_6  and  O_7 
REMARK    7  A    between atoms: O_7  and  S_76 
REMARK    8  A    between atoms: O_12  and  C_20 
REMARK    9  A    between atoms: O_14  and  C_18 
REMARK   10  A    between atoms: C_16  and  C_23 
REMARK   11  A    between atoms: O_17  and  C_23 
REMARK   12  A    between atoms: O_17  and  S_77 
REMARK   13  A    between atoms: O_19  and  C_22 
REMARK   14  A    between atoms: O_19  and  C_42 
REMARK   15  A    between atoms: N_21  and  C_24 
REMARK   16  A    between atoms: O_26  and  C_29 
REMARK   17  A    between atoms: C_28  and  C_34 
REMARK   18  A    between atoms: O_30  and  C_33 
REMARK   19  A    between atoms: C_31  and  O_53 
REMARK   20  A    between atoms: N_32  and  C_35 
REMARK   21  A    between atoms: C_34  and  O_74 
REMARK   22  A    between atoms: O_37  and  C_41 
REMARK   23  A    between atoms: C_39  and  C_45 
REMARK   24  A    between atoms: O_40  and  C_45 
REMARK   25  A    between atoms: O_40  and  S_78 
REMARK   26  A    between atoms: N_43  and  C_46 
REMARK   27  A    between atoms: O_48  and  C_52 
REMARK   28  A    between atoms: C_50  and  C_57 
REMARK   29  A    between atoms: O_51  and  C_57 
REMARK   30  A    between atoms: O_51  and  S_69 
REMARK   31  A    between atoms: O_53  and  C_56 
REMARK   32  A    between atoms: N_55  and  C_58 
REMARK   33  A    between atoms: S_69  and  O_72 
REMARK   34  A    between atoms: O_74  and  S_75 
REMARK   35  A    between atoms: S_75  and  O_87 
REMARK   36  A    between atoms: S_76  and  O_89 
REMARK   37  A    between atoms: S_77  and  O_91 
REMARK   38  A    between atoms: S_78  and  O_93 
ROOT
HETATM    1  C   UNL     1      -7.329   1.037  -0.317  1.00  0.00     0.187 C 
HETATM    2  C   UNL     1      -6.410   1.853   0.622  1.00  0.00     0.181 C 
HETATM    3  C   UNL     1      -6.595  -0.200  -0.866  1.00  0.00     0.187 C 
HETATM    4  C   UNL     1      -5.231   0.201  -1.466  1.00  0.00     0.303 C 
HETATM    5  C   UNL     1      -4.392   1.016  -0.418  1.00  0.00     0.296 C 
HETATM    6  O   UNL     1      -5.126   1.223   0.786  1.00  0.00    -0.349 OA
ENDROOT
BRANCH   1   7
HETATM    7  O   UNL     1      -8.475   0.568   0.408  1.00  0.00    -0.348 OA
BRANCH   7   8
HETATM    8  C   UNL     1      -9.732   0.848  -0.210  1.00  0.00     0.296 C 
HETATM    9  O   UNL     1     -10.378   1.819   0.604  1.00  0.00    -0.349 OA
HETATM   10  C   UNL     1     -11.640   2.272   0.092  1.00  0.00     0.181 C 
HETATM   11  C   UNL     1     -12.627   1.089  -0.106  1.00  0.00     0.187 C 
HETATM   12  C   UNL     1     -11.986  -0.262   0.283  1.00  0.00     0.187 C 
HETATM   13  C   UNL     1     -10.593  -0.446  -0.356  1.00  0.00     0.303 C 
BRANCH  10  14
HETATM   14  C   UNL     1     -11.462   3.111  -1.193  1.00  0.00     0.226 C 
BRANCH  14  15
HETATM   15  O   UNL     1     -10.199   3.758  -1.180  1.00  0.00    -0.261 OA
BRANCH  15  16
HETATM   16  S   UNL     1     -10.100   5.372  -1.199  1.00  0.00     0.240 S 
HETATM   17  O   UNL     1     -11.223   5.927  -0.484  1.00  0.00    -0.579 OA
HETATM   18  O   UNL     1      -9.763   5.774  -2.545  1.00  0.00    -0.579 OA
BRANCH  16  19
HETATM   19  O   UNL     1      -8.782   5.625  -0.318  1.00  0.00    -0.274 OA
HETATM   20  H   UNL     1      -8.311   6.418  -0.650  1.00  0.00     0.234 HD
ENDBRANCH  16  19
ENDBRANCH  15  16
ENDBRANCH  14  15
ENDBRANCH  10  14
BRANCH  11  21
HETATM   21  O   UNL     1     -13.757   1.298   0.747  1.00  0.00    -0.348 OA
BRANCH  21  22
HETATM   22  C   UNL     1     -15.018   1.410   0.098  1.00  0.00     0.296 C 
HETATM   23  O   UNL     1     -15.854   2.176   0.948  1.00  0.00    -0.351 OA
HETATM   24  C   UNL     1     -17.056   2.635   0.312  1.00  0.00     0.152 C 
HETATM   25  C   UNL     1     -17.557   1.681  -0.785  1.00  0.00     0.068 C 
HETATM   26  C   UNL     1     -17.211   0.230  -0.454  1.00  0.00     0.158 C 
HETATM   27  C   UNL     1     -15.705   0.031  -0.105  1.00  0.00     0.300 C 
BRANCH  24  28
HETATM   28  C   UNL     1     -16.820   4.065  -0.202  1.00  0.00     0.224 C 
BRANCH  28  29
HETATM   29  O   UNL     1     -16.099   4.749   0.811  1.00  0.00    -0.261 OA
BRANCH  29  30
HETATM   30  S   UNL     1     -16.099   6.357   0.882  1.00  0.00     0.240 S 
HETATM   31  O   UNL     1     -17.415   6.843   0.545  1.00  0.00    -0.579 OA
HETATM   32  O   UNL     1     -14.909   6.824   0.210  1.00  0.00    -0.579 OA
BRANCH  30  33
HETATM   33  O   UNL     1     -15.862   6.585   2.457  1.00  0.00    -0.274 OA
HETATM   34  H   UNL     1     -15.059   6.089   2.717  1.00  0.00     0.234 HD
ENDBRANCH  30  33
ENDBRANCH  29  30
ENDBRANCH  28  29
ENDBRANCH  24  28
BRANCH  26  35
HETATM   35  O   UNL     1     -18.051  -0.191   0.628  1.00  0.00    -0.393 OA
HETATM   36  H   UNL     1     -17.566  -0.944   1.032  1.00  0.00     0.210 HD
ENDBRANCH  26  35
BRANCH  27  37
HETATM   37  N   UNL     1     -15.583  -0.856   1.088  1.00  0.00     0.090 N 
HETATM   38  H   UNL     1     -15.853  -0.276   1.896  1.00  0.00     0.313 HD
HETATM   39  H   UNL     1     -14.582  -0.993   1.274  1.00  0.00     0.313 HD
ENDBRANCH  27  37
ENDBRANCH  21  22
ENDBRANCH  11  21
BRANCH  12  40
HETATM   40  O   UNL     1     -11.886  -0.407   1.712  1.00  0.00    -0.391 OA
HETATM   41  H   UNL     1     -11.426   0.385   2.053  1.00  0.00     0.210 HD
ENDBRANCH  12  40
BRANCH  13  42
HETATM   42  N   UNL     1      -9.952  -1.680   0.145  1.00  0.00     0.090 N 
HETATM   43  H   UNL     1     -10.301  -1.837   1.098  1.00  0.00     0.313 HD
HETATM   44  H   UNL     1      -8.951  -1.490   0.287  1.00  0.00     0.313 HD
ENDBRANCH  13  42
ENDBRANCH   7   8
ENDBRANCH   1   7
BRANCH   2  45
HETATM   45  C   UNL     1      -6.252   3.310   0.158  1.00  0.00     0.226 C 
BRANCH  45  46
HETATM   46  O   UNL     1      -5.220   3.921   0.920  1.00  0.00    -0.261 OA
BRANCH  46  47
HETATM   47  S   UNL     1      -4.882   5.476   0.631  1.00  0.00     0.240 S 
HETATM   48  O   UNL     1      -6.067   6.262   0.881  1.00  0.00    -0.579 OA
HETATM   49  O   UNL     1      -4.192   5.519  -0.637  1.00  0.00    -0.579 OA
BRANCH  47  50
HETATM   50  O   UNL     1      -3.790   5.795   1.766  1.00  0.00    -0.274 OA
HETATM   51  H   UNL     1      -2.961   5.315   1.575  1.00  0.00     0.234 HD
ENDBRANCH  47  50
ENDBRANCH  46  47
ENDBRANCH  45  46
ENDBRANCH   2  45
BRANCH   3  52
HETATM   52  O   UNL     1      -6.404  -1.195   0.158  1.00  0.00    -0.391 OA
HETATM   53  H   UNL     1      -6.006  -0.747   0.931  1.00  0.00     0.210 HD
ENDBRANCH   3  52
BRANCH   4  54
HETATM   54  N   UNL     1      -4.583  -1.001  -2.028  1.00  0.00     0.090 N 
HETATM   55  H   UNL     1      -4.733  -1.763  -1.352  1.00  0.00     0.313 HD
HETATM   56  H   UNL     1      -3.576  -0.881  -2.054  1.00  0.00     0.313 HD
ENDBRANCH   4  54
BRANCH   5  57
HETATM   57  O   UNL     1      -3.200   0.323  -0.039  1.00  0.00    -0.348 OA
BRANCH  57  58
HETATM   58  C   UNL     1      -1.985   0.754  -0.680  1.00  0.00     0.187 C 
HETATM   59  C   UNL     1      -1.293   1.923   0.073  1.00  0.00     0.181 C 
HETATM   60  O   UNL     1       0.075   1.664   0.440  1.00  0.00    -0.349 OA
HETATM   61  C   UNL     1       0.924   1.070  -0.540  1.00  0.00     0.296 C 
HETATM   62  C   UNL     1       0.280  -0.147  -1.286  1.00  0.00     0.303 C 
HETATM   63  C   UNL     1      -1.097  -0.492  -0.713  1.00  0.00     0.187 C 
BRANCH  59  64
HETATM   64  C   UNL     1      -1.373   3.231  -0.735  1.00  0.00     0.226 C 
BRANCH  64  65
HETATM   65  O   UNL     1      -0.966   4.332   0.069  1.00  0.00    -0.261 OA
BRANCH  65  66
HETATM   66  S   UNL     1      -0.713   5.762  -0.667  1.00  0.00     0.240 S 
HETATM   67  O   UNL     1      -1.469   5.793  -1.899  1.00  0.00    -0.579 OA
HETATM   68  O   UNL     1      -0.823   6.782   0.343  1.00  0.00    -0.579 OA
BRANCH  66  69
HETATM   69  O   UNL     1       0.836   5.673  -1.073  1.00  0.00    -0.274 OA
HETATM   70  H   UNL     1       1.353   6.175  -0.388  1.00  0.00     0.234 HD
ENDBRANCH  66  69
ENDBRANCH  65  66
ENDBRANCH  64  65
ENDBRANCH  59  64
BRANCH  61  71
HETATM   71  O   UNL     1       2.122   0.635   0.123  1.00  0.00    -0.348 OA
BRANCH  71  72
HETATM   72  C   UNL     1       3.364   1.121  -0.402  1.00  0.00     0.186 C 
HETATM   73  C   UNL     1       3.758   2.477   0.245  1.00  0.00     0.178 C 
HETATM   74  O   UNL     1       5.156   2.519   0.611  1.00  0.00    -0.379 OA
HETATM   75  C   UNL     1       6.017   2.060  -0.433  1.00  0.00     0.206 C 
HETATM   76  C   UNL     1       5.824   0.553  -0.689  1.00  0.00     0.272 C 
HETATM   77  C   UNL     1       4.470   0.077  -0.104  1.00  0.00     0.184 C 
BRANCH  73  78
HETATM   78  C   UNL     1       3.387   3.687  -0.634  1.00  0.00     0.226 C 
BRANCH  78  79
HETATM   79  O   UNL     1       4.441   4.635  -0.634  1.00  0.00    -0.261 OA
BRANCH  79  80
HETATM   80  S   UNL     1       4.215   6.188  -0.261  1.00  0.00     0.240 S 
HETATM   81  O   UNL     1       2.866   6.384   0.231  1.00  0.00    -0.579 OA
HETATM   82  O   UNL     1       4.741   6.967  -1.356  1.00  0.00    -0.579 OA
BRANCH  80  83
HETATM   83  O   UNL     1       5.225   6.361   0.977  1.00  0.00    -0.274 OA
HETATM   84  H   UNL     1       6.040   5.853   0.790  1.00  0.00     0.234 HD
ENDBRANCH  80  83
ENDBRANCH  79  80
ENDBRANCH  78  79
ENDBRANCH  73  78
BRANCH  76  85
HETATM   85  N   UNL     1       6.927  -0.260  -0.151  1.00  0.00     0.087 N 
HETATM   86  H   UNL     1       6.672  -0.548   0.801  1.00  0.00     0.313 HD
HETATM   87  H   UNL     1       7.786   0.279  -0.067  1.00  0.00     0.313 HD
ENDBRANCH  76  85
BRANCH  77  88
HETATM   88  O   UNL     1       4.611  -0.146   1.314  1.00  0.00    -0.391 OA
HETATM   89  H   UNL     1       4.806   0.717   1.725  1.00  0.00     0.210 HD
ENDBRANCH  77  88
ENDBRANCH  71  72
ENDBRANCH  61  71
BRANCH  62  90
HETATM   90  N   UNL     1       1.105  -1.377  -1.343  1.00  0.00     0.090 N 
HETATM   91  H   UNL     1       0.811  -1.948  -0.536  1.00  0.00     0.313 HD
HETATM   92  H   UNL     1       2.058  -1.128  -1.073  1.00  0.00     0.313 HD
ENDBRANCH  62  90
BRANCH  63  93
HETATM   93  O   UNL     1      -0.975  -1.078   0.590  1.00  0.00    -0.391 OA
HETATM   94  H   UNL     1      -1.865  -1.034   0.994  1.00  0.00     0.210 HD
ENDBRANCH  63  93
ENDBRANCH  57  58
ENDBRANCH   5  57
TORSDOF 38
