REMARK WARNING: 32 MAX_TORS EXCEEDED!!!
REMARK  58 active torsions:
REMARK  status: ('A' for Active; 'I' for Inactive)
REMARK    1  A    between atoms: C_1  and  O_30 
REMARK    2  A    between atoms: C_2  and  C_6 
REMARK    3  A    between atoms: C_3  and  O_9 
REMARK    4  A    between atoms: C_4  and  N_11 
REMARK    5  A    between atoms: C_5  and  O_12 
REMARK    6  A    between atoms: C_6  and  O_7 
REMARK    7  A    between atoms: N_11  and  C_118 
REMARK    8  A    between atoms: O_12  and  C_20 
REMARK    9  A    between atoms: O_14  and  C_18 
REMARK   10  A    between atoms: C_16  and  C_23 
REMARK   11  A    between atoms: O_17  and  C_23 
REMARK   12  A    between atoms: O_19  and  C_22 
REMARK   13  A    between atoms: O_19  and  C_42 
REMARK   14  A    between atoms: N_21  and  C_24 
REMARK   15  A    between atoms: O_26  and  C_29 
REMARK   16  A    between atoms: C_28  and  C_34 
REMARK   17  A    between atoms: O_30  and  C_33 
REMARK   18  A    between atoms: C_31  and  O_53 
REMARK   19  A    between atoms: N_32  and  C_35 
REMARK   20  A    between atoms: C_34  and  O_65 
REMARK   21  A    between atoms: O_37  and  C_41 
REMARK   22  A    between atoms: C_39  and  C_45 
REMARK   23  A    between atoms: O_40  and  C_45 
REMARK   24  A    between atoms: N_43  and  C_46 
REMARK   25  A    between atoms: O_48  and  C_52 
REMARK   26  A    between atoms: C_50  and  C_57 
REMARK   27  A    between atoms: O_51  and  C_57 
REMARK   28  A    between atoms: O_53  and  C_56 
REMARK   29  A    between atoms: N_55  and  C_58 
REMARK   30  A    between atoms: N_55  and  C_71 
REMARK   31  A    between atoms: C_71  and  C_73 
REMARK   32  A    between atoms: C_73  and  C_74 
REMARK   33  A    between atoms: C_73  and  N_87 
REMARK   34  A    between atoms: C_74  and  C_75 
REMARK   35  A    between atoms: C_75  and  C_76 
REMARK   36  A    between atoms: C_75  and  N_101 
REMARK   37  A    between atoms: C_76  and  C_77 
REMARK   38  A    between atoms: C_77  and  C_78 
REMARK   39  A    between atoms: C_77  and  N_91 
REMARK   40  A    between atoms: C_78  and  C_79 
REMARK   41  A    between atoms: C_79  and  C_80 
REMARK   42  A    between atoms: C_79  and  N_106 
REMARK   43  A    between atoms: C_80  and  C_81 
REMARK   44  A    between atoms: C_81  and  N_96 
REMARK   45  A    between atoms: N_113  and  C_119 
REMARK   46  A    between atoms: C_118  and  C_119 
REMARK   47  A    between atoms: C_119  and  C_126 
REMARK   48  A    between atoms: N_122  and  C_128 
REMARK   49  A    between atoms: C_124  and  C_128 
REMARK   50  A    between atoms: C_124  and  C_130 
REMARK   51  A    between atoms: N_125  and  C_135 
REMARK   52  A    between atoms: C_126  and  C_130 
REMARK   53  A    between atoms: C_128  and  C_132 
REMARK   54  A    between atoms: N_129  and  C_130 
REMARK   55  A    between atoms: C_132  and  C_137 
REMARK   56  A    between atoms: C_135  and  C_136 
REMARK   57  A    between atoms: C_136  and  C_137 
REMARK   58  A    between atoms: C_137  and  N_140 
ROOT
HETATM    1  C   UNL     1      -7.274   0.523   0.382  1.00  0.00     0.186 C 
HETATM    2  C   UNL     1      -6.515   1.522   1.339  1.00  0.00     0.179 C 
HETATM    3  C   UNL     1      -6.433  -0.708  -0.086  1.00  0.00     0.188 C 
HETATM    4  C   UNL     1      -5.314  -1.145   0.917  1.00  0.00     0.306 C 
HETATM    5  C   UNL     1      -4.536   0.218   1.036  1.00  0.00     0.296 C 
HETATM    6  O   UNL     1      -5.260   1.057   1.914  1.00  0.00    -0.349 OA
ENDROOT
BRANCH   1   7
HETATM    7  O   UNL     1      -8.511   0.108   0.995  1.00  0.00    -0.348 OA
BRANCH   7   8
HETATM    8  C   UNL     1      -9.684   0.271   0.166  1.00  0.00     0.296 C 
HETATM    9  O   UNL     1     -10.534   1.225   0.817  1.00  0.00    -0.349 OA
HETATM   10  C   UNL     1     -11.833   1.437   0.219  1.00  0.00     0.179 C 
HETATM   11  C   UNL     1     -12.570   0.118  -0.099  1.00  0.00     0.186 C 
HETATM   12  C   UNL     1     -11.829  -1.072   0.522  1.00  0.00     0.187 C 
HETATM   13  C   UNL     1     -10.398  -1.113  -0.027  1.00  0.00     0.303 C 
BRANCH  10  14
HETATM   14  C   UNL     1     -11.726   2.342  -1.024  1.00  0.00     0.198 C 
BRANCH  14  15
HETATM   15  O   UNL     1     -10.890   3.473  -0.786  1.00  0.00    -0.398 OA
HETATM   16  H   UNL     1     -10.978   3.713   0.155  1.00  0.00     0.209 HD
ENDBRANCH  14  15
ENDBRANCH  10  14
BRANCH  11  17
HETATM   17  O   UNL     1     -13.900   0.090   0.426  1.00  0.00    -0.348 OA
BRANCH  17  18
HETATM   18  C   UNL     1     -14.906   0.607  -0.434  1.00  0.00     0.296 C 
HETATM   19  O   UNL     1     -15.333   1.873   0.061  1.00  0.00    -0.351 OA
HETATM   20  C   UNL     1     -16.728   2.186  -0.081  1.00  0.00     0.150 C 
HETATM   21  C   UNL     1     -17.288   1.656  -1.398  1.00  0.00     0.068 C 
HETATM   22  C   UNL     1     -17.072   0.146  -1.558  1.00  0.00     0.158 C 
HETATM   23  C   UNL     1     -16.027  -0.461  -0.584  1.00  0.00     0.303 C 
BRANCH  20  24
HETATM   24  C   UNL     1     -16.897   3.711   0.023  1.00  0.00     0.196 C 
BRANCH  24  25
HETATM   25  O   UNL     1     -16.634   4.136   1.360  1.00  0.00    -0.398 OA
HETATM   26  H   UNL     1     -16.722   5.104   1.381  1.00  0.00     0.209 HD
ENDBRANCH  24  25
ENDBRANCH  20  24
BRANCH  22  27
HETATM   27  O   UNL     1     -18.326  -0.530  -1.422  1.00  0.00    -0.393 OA
HETATM   28  H   UNL     1     -18.299  -0.943  -0.534  1.00  0.00     0.210 HD
ENDBRANCH  22  27
BRANCH  23  29
HETATM   29  N   UNL     1     -16.730  -0.880   0.662  1.00  0.00     0.097 N 
HETATM   30  H   UNL     1     -16.755  -0.052   1.268  1.00  0.00     0.316 HD
BRANCH  29  31
HETATM   31  C   UNL     1     -16.081  -1.913   1.487  1.00  0.00     0.296 C 
BRANCH  31  32
HETATM   32  C   UNL     1     -16.974  -3.149   1.937  1.00  0.00     0.120 C 
BRANCH  32  33
HETATM   33  C   UNL     1     -16.830  -4.315   0.889  1.00  0.00     0.053 C 
BRANCH  33  34
HETATM   34  C   UNL     1     -17.201  -5.817   1.268  1.00  0.00     0.094 C 
BRANCH  34  35
HETATM   35  C   UNL     1     -16.442  -6.270   2.579  1.00  0.00     0.051 C 
BRANCH  35  36
HETATM   36  C   UNL     1     -16.678  -7.672   3.267  1.00  0.00     0.094 C 
BRANCH  36  37
HETATM   37  C   UNL     1     -15.370  -8.247   3.919  1.00  0.00     0.051 C 
BRANCH  37  38
HETATM   38  C   UNL     1     -14.980  -9.753   3.674  1.00  0.00     0.094 C 
BRANCH  38  39
HETATM   39  C   UNL     1     -13.745 -10.183   4.548  1.00  0.00     0.051 C 
BRANCH  39  40
HETATM   40  C   UNL     1     -13.801 -11.348   5.574  1.00  0.00     0.089 C 
HETATM   41  C   UNL     1     -12.364 -11.793   5.910  1.00  0.00     0.033 C 
BRANCH  40  42
HETATM   42  N   UNL     1     -14.496 -11.062   6.822  1.00  0.00    -0.334 N 
HETATM   43  C   UNL     1     -14.902 -12.002   7.734  1.00  0.00     0.210 A 
HETATM   44  N   UNL     1     -15.442 -11.445   8.794  1.00  0.00    -0.254 NA
HETATM   45  C   UNL     1     -15.381 -10.096   8.559  1.00  0.00     0.150 A 
HETATM   46  C   UNL     1     -14.797  -9.833   7.340  1.00  0.00     0.082 A 
ENDBRANCH  40  42
ENDBRANCH  39  40
ENDBRANCH  38  39
BRANCH  38  47
HETATM   47  N   UNL     1     -16.037 -10.719   3.437  1.00  0.00    -0.345 N 
HETATM   48  C   UNL     1     -16.734 -11.487   4.322  1.00  0.00     0.209 A 
HETATM   49  N   UNL     1     -17.564 -12.305   3.712  1.00  0.00    -0.255 NA
HETATM   50  C   UNL     1     -17.455 -12.021   2.383  1.00  0.00     0.135 A 
HETATM   51  C   UNL     1     -16.513 -11.041   2.184  1.00  0.00     0.111 A 
ENDBRANCH  38  47
ENDBRANCH  37  38
ENDBRANCH  36  37
BRANCH  36  52
HETATM   52  N   UNL     1     -17.720  -7.610   4.305  1.00  0.00    -0.345 N 
HETATM   53  C   UNL     1     -18.554  -8.632   4.669  1.00  0.00     0.209 A 
HETATM   54  N   UNL     1     -19.327  -8.300   5.678  1.00  0.00    -0.255 NA
HETATM   55  C   UNL     1     -18.999  -7.011   5.977  1.00  0.00     0.135 A 
HETATM   56  C   UNL     1     -17.965  -6.583   5.179  1.00  0.00     0.111 A 
ENDBRANCH  36  52
ENDBRANCH  35  36
ENDBRANCH  34  35
BRANCH  34  57
HETATM   57  N   UNL     1     -18.603  -6.169   1.049  1.00  0.00    -0.345 N 
HETATM   58  C   UNL     1     -19.106  -7.445   0.975  1.00  0.00     0.209 A 
HETATM   59  N   UNL     1     -20.343  -7.476   0.536  1.00  0.00    -0.255 NA
HETATM   60  C   UNL     1     -20.655  -6.180   0.260  1.00  0.00     0.135 A 
HETATM   61  C   UNL     1     -19.579  -5.365   0.511  1.00  0.00     0.111 A 
ENDBRANCH  34  57
ENDBRANCH  33  34
ENDBRANCH  32  33
BRANCH  32  62
HETATM   62  N   UNL     1     -18.343  -2.843   2.369  1.00  0.00    -0.344 N 
HETATM   63  C   UNL     1     -19.117  -1.733   2.156  1.00  0.00     0.111 A 
HETATM   64  C   UNL     1     -20.315  -1.962   2.787  1.00  0.00     0.135 A 
HETATM   65  N   UNL     1     -20.292  -3.161   3.424  1.00  0.00    -0.255 NA
HETATM   66  C   UNL     1     -19.103  -3.658   3.174  1.00  0.00     0.209 A 
ENDBRANCH  32  62
ENDBRANCH  31  32
ENDBRANCH  29  31
ENDBRANCH  23  29
ENDBRANCH  17  18
ENDBRANCH  11  17
BRANCH  12  67
HETATM   67  O   UNL     1     -11.819  -1.006   1.959  1.00  0.00    -0.391 OA
HETATM   68  H   UNL     1     -11.346  -0.189   2.211  1.00  0.00     0.210 HD
ENDBRANCH  12  67
BRANCH  13  69
HETATM   69  N   UNL     1      -9.700  -2.278   0.555  1.00  0.00     0.090 N 
HETATM   70  H   UNL     1      -9.764  -2.174   1.573  1.00  0.00     0.313 HD
HETATM   71  H   UNL     1      -8.703  -2.123   0.360  1.00  0.00     0.313 HD
ENDBRANCH  13  69
ENDBRANCH   7   8
ENDBRANCH   1   7
BRANCH   2  72
HETATM   72  C   UNL     1      -6.282   2.865   0.595  1.00  0.00     0.198 C 
BRANCH  72  73
HETATM   73  O   UNL     1      -5.632   3.815   1.431  1.00  0.00    -0.398 OA
HETATM   74  H   UNL     1      -5.648   4.676   0.978  1.00  0.00     0.209 HD
ENDBRANCH  72  73
ENDBRANCH   2  72
BRANCH   3  75
HETATM   75  O   UNL     1      -7.236  -1.790  -0.554  1.00  0.00    -0.391 OA
HETATM   76  H   UNL     1      -6.814  -2.619  -0.264  1.00  0.00     0.210 HD
ENDBRANCH   3  75
BRANCH   4  77
HETATM   77  N   UNL     1      -5.954  -1.989   2.008  1.00  0.00     0.097 N 
HETATM   78  H   UNL     1      -5.848  -2.966   1.739  1.00  0.00     0.316 HD
BRANCH  77  79
HETATM   79  C   UNL     1      -5.533  -1.853   3.424  1.00  0.00     0.296 C 
BRANCH  79  80
HETATM   80  C   UNL     1      -6.140  -2.917   4.542  1.00  0.00     0.120 C 
BRANCH  80  81
HETATM   81  N   UNL     1      -7.390  -2.488   5.173  1.00  0.00    -0.344 N 
HETATM   82  C   UNL     1      -8.237  -1.470   4.821  1.00  0.00     0.111 A 
HETATM   83  C   UNL     1      -9.201  -1.423   5.805  1.00  0.00     0.135 A 
HETATM   84  N   UNL     1      -8.959  -2.372   6.758  1.00  0.00    -0.255 NA
HETATM   85  C   UNL     1      -7.866  -2.965   6.370  1.00  0.00     0.209 A 
ENDBRANCH  80  81
BRANCH  80  86
HETATM   86  C   UNL     1      -6.079  -4.435   4.067  1.00  0.00     0.053 C 
BRANCH  86  87
HETATM   87  C   UNL     1      -6.564  -5.760   4.872  1.00  0.00     0.094 C 
BRANCH  87  88
HETATM   88  C   UNL     1      -5.824  -6.079   6.251  1.00  0.00     0.051 C 
BRANCH  88  89
HETATM   89  C   UNL     1      -6.114  -7.460   7.036  1.00  0.00     0.094 C 
BRANCH  89  90
HETATM   90  N   UNL     1      -7.182  -7.355   8.051  1.00  0.00    -0.345 N 
HETATM   91  C   UNL     1      -7.584  -6.248   8.749  1.00  0.00     0.111 A 
HETATM   92  C   UNL     1      -8.484  -6.699   9.688  1.00  0.00     0.135 A 
HETATM   93  N   UNL     1      -8.621  -8.050   9.607  1.00  0.00    -0.255 NA
HETATM   94  C   UNL     1      -7.868  -8.411   8.595  1.00  0.00     0.209 A 
ENDBRANCH  89  90
BRANCH  89  95
HETATM   95  C   UNL     1      -4.835  -8.072   7.741  1.00  0.00     0.051 C 
BRANCH  95  96
HETATM   96  C   UNL     1      -4.483  -9.617   7.582  1.00  0.00     0.094 C 
BRANCH  96  97
HETATM   97  C   UNL     1      -3.272 -10.044   8.504  1.00  0.00     0.051 C 
BRANCH  97  98
HETATM   98  C   UNL     1      -3.327 -11.245   9.498  1.00  0.00     0.089 C 
HETATM   99  C   UNL     1      -1.891 -11.711   9.815  1.00  0.00     0.033 C 
BRANCH  98 100
HETATM  100  N   UNL     1      -4.006 -10.985  10.763  1.00  0.00    -0.334 N 
HETATM  101  C   UNL     1      -4.304  -9.764  11.304  1.00  0.00     0.082 A 
HETATM  102  C   UNL     1      -4.848 -10.046  12.537  1.00  0.00     0.150 A 
HETATM  103  N   UNL     1      -4.878 -11.398  12.762  1.00  0.00    -0.254 NA
HETATM  104  C   UNL     1      -4.376 -11.938  11.676  1.00  0.00     0.210 A 
ENDBRANCH  98 100
ENDBRANCH  97  98
ENDBRANCH  96  97
BRANCH  96 105
HETATM  105  N   UNL     1      -5.545 -10.581   7.353  1.00  0.00    -0.345 N 
HETATM  106  C   UNL     1      -6.219 -11.370   8.240  1.00  0.00     0.209 A 
HETATM  107  N   UNL     1      -7.034 -12.206   7.634  1.00  0.00    -0.255 NA
HETATM  108  C   UNL     1      -6.931 -11.924   6.305  1.00  0.00     0.135 A 
HETATM  109  C   UNL     1      -6.015 -10.921   6.102  1.00  0.00     0.111 A 
ENDBRANCH  96 105
ENDBRANCH  95  96
ENDBRANCH  89  95
ENDBRANCH  88  89
ENDBRANCH  87  88
BRANCH  87 110
HETATM  110  N   UNL     1      -8.000  -6.055   4.763  1.00  0.00    -0.345 N 
HETATM  111  C   UNL     1      -8.984  -5.247   4.256  1.00  0.00     0.111 A 
HETATM  112  C   UNL     1     -10.111  -6.026   4.151  1.00  0.00     0.135 A 
HETATM  113  N   UNL     1      -9.832  -7.316   4.483  1.00  0.00    -0.255 NA
HETATM  114  C   UNL     1      -8.561  -7.313   4.811  1.00  0.00     0.209 A 
ENDBRANCH  87 110
ENDBRANCH  86  87
ENDBRANCH  80  86
ENDBRANCH  79  80
ENDBRANCH  77  79
ENDBRANCH   4  77
BRANCH   5 115
HETATM  115  O   UNL     1      -3.126   0.084   1.306  1.00  0.00    -0.348 OA
BRANCH 115 116
HETATM  116  C   UNL     1      -2.266   0.527   0.191  1.00  0.00     0.186 C 
HETATM  117  C   UNL     1      -1.548   1.872   0.485  1.00  0.00     0.179 C 
HETATM  118  O   UNL     1      -0.151   1.706   0.788  1.00  0.00    -0.349 OA
HETATM  119  C   UNL     1       0.654   1.119  -0.239  1.00  0.00     0.296 C 
HETATM  120  C   UNL     1      -0.044  -0.101  -0.935  1.00  0.00     0.303 C 
HETATM  121  C   UNL     1      -1.263  -0.605  -0.125  1.00  0.00     0.187 C 
BRANCH 117 122
HETATM  122  C   UNL     1      -1.700   2.881  -0.675  1.00  0.00     0.198 C 
BRANCH 122 123
HETATM  123  O   UNL     1      -1.001   4.093  -0.405  1.00  0.00    -0.398 OA
HETATM  124  H   UNL     1      -0.355   3.919   0.308  1.00  0.00     0.209 HD
ENDBRANCH 122 123
ENDBRANCH 117 122
BRANCH 119 125
HETATM  125  O   UNL     1       1.893   0.709   0.362  1.00  0.00    -0.348 OA
BRANCH 125 126
HETATM  126  C   UNL     1       3.097   1.185  -0.273  1.00  0.00     0.186 C 
HETATM  127  C   UNL     1       3.525   2.563   0.294  1.00  0.00     0.176 C 
HETATM  128  O   UNL     1       4.960   2.673   0.484  1.00  0.00    -0.379 OA
HETATM  129  C   UNL     1       5.725   2.126  -0.592  1.00  0.00     0.206 C 
HETATM  130  C   UNL     1       5.548   0.597  -0.685  1.00  0.00     0.272 C 
HETATM  131  C   UNL     1       4.226   0.159  -0.004  1.00  0.00     0.184 C 
BRANCH 127 132
HETATM  132  C   UNL     1       3.062   3.747  -0.569  1.00  0.00     0.198 C 
BRANCH 132 133
HETATM  133  O   UNL     1       3.509   4.973   0.010  1.00  0.00    -0.398 OA
HETATM  134  H   UNL     1       4.408   4.804   0.356  1.00  0.00     0.209 HD
ENDBRANCH 132 133
ENDBRANCH 127 132
BRANCH 130 135
HETATM  135  N   UNL     1       6.688  -0.154  -0.118  1.00  0.00     0.087 N 
HETATM  136  H   UNL     1       6.371  -0.587   0.758  1.00  0.00     0.313 HD
HETATM  137  H   UNL     1       7.446   0.471   0.154  1.00  0.00     0.313 HD
ENDBRANCH 130 135
BRANCH 131 138
HETATM  138  O   UNL     1       4.456  -0.004   1.413  1.00  0.00    -0.391 OA
HETATM  139  H   UNL     1       4.743   0.865   1.754  1.00  0.00     0.210 HD
ENDBRANCH 131 138
ENDBRANCH 125 126
ENDBRANCH 119 125
BRANCH 120 140
HETATM  140  N   UNL     1       0.902  -1.196  -1.260  1.00  0.00     0.090 N 
HETATM  141  H   UNL     1       0.408  -2.088  -1.198  1.00  0.00     0.313 HD
HETATM  142  H   UNL     1       1.543  -1.244  -0.454  1.00  0.00     0.313 HD
ENDBRANCH 120 140
BRANCH 121 143
HETATM  143  O   UNL     1      -0.845  -1.288   1.059  1.00  0.00    -0.391 OA
HETATM  144  H   UNL     1      -1.401  -0.945   1.788  1.00  0.00     0.210 HD
ENDBRANCH 121 143
ENDBRANCH 115 116
ENDBRANCH   5 115
TORSDOF 58
