REMARK WARNING: 32 MAX_TORS EXCEEDED!!!
REMARK  58 active torsions:
REMARK  status: ('A' for Active; 'I' for Inactive)
REMARK    1  A    between atoms: C_1  and  O_30 
REMARK    2  A    between atoms: C_2  and  C_6 
REMARK    3  A    between atoms: C_3  and  O_9 
REMARK    4  A    between atoms: C_4  and  N_11 
REMARK    5  A    between atoms: C_5  and  O_12 
REMARK    6  A    between atoms: C_6  and  O_7 
REMARK    7  A    between atoms: N_11  and  C_118 
REMARK    8  A    between atoms: O_12  and  C_20 
REMARK    9  A    between atoms: O_14  and  C_18 
REMARK   10  A    between atoms: C_16  and  C_23 
REMARK   11  A    between atoms: O_17  and  C_23 
REMARK   12  A    between atoms: O_19  and  C_22 
REMARK   13  A    between atoms: O_19  and  C_42 
REMARK   14  A    between atoms: N_21  and  C_24 
REMARK   15  A    between atoms: O_26  and  C_29 
REMARK   16  A    between atoms: C_28  and  C_34 
REMARK   17  A    between atoms: O_30  and  C_33 
REMARK   18  A    between atoms: C_31  and  O_53 
REMARK   19  A    between atoms: N_32  and  C_35 
REMARK   20  A    between atoms: C_34  and  O_65 
REMARK   21  A    between atoms: O_37  and  C_41 
REMARK   22  A    between atoms: C_39  and  C_45 
REMARK   23  A    between atoms: O_40  and  C_45 
REMARK   24  A    between atoms: N_43  and  C_46 
REMARK   25  A    between atoms: O_48  and  C_52 
REMARK   26  A    between atoms: C_50  and  C_57 
REMARK   27  A    between atoms: O_51  and  C_57 
REMARK   28  A    between atoms: O_53  and  C_56 
REMARK   29  A    between atoms: N_55  and  C_58 
REMARK   30  A    between atoms: N_55  and  C_71 
REMARK   31  A    between atoms: C_71  and  C_73 
REMARK   32  A    between atoms: C_73  and  C_74 
REMARK   33  A    between atoms: C_73  and  N_87 
REMARK   34  A    between atoms: C_74  and  C_75 
REMARK   35  A    between atoms: C_75  and  C_76 
REMARK   36  A    between atoms: C_75  and  N_101 
REMARK   37  A    between atoms: C_76  and  C_77 
REMARK   38  A    between atoms: C_77  and  C_78 
REMARK   39  A    between atoms: C_77  and  N_91 
REMARK   40  A    between atoms: C_78  and  C_79 
REMARK   41  A    between atoms: C_79  and  C_80 
REMARK   42  A    between atoms: C_79  and  N_106 
REMARK   43  A    between atoms: C_80  and  C_81 
REMARK   44  A    between atoms: C_81  and  N_96 
REMARK   45  A    between atoms: N_113  and  C_119 
REMARK   46  A    between atoms: C_118  and  C_119 
REMARK   47  A    between atoms: C_119  and  C_126 
REMARK   48  A    between atoms: N_122  and  C_128 
REMARK   49  A    between atoms: C_124  and  C_128 
REMARK   50  A    between atoms: C_124  and  C_130 
REMARK   51  A    between atoms: N_125  and  C_135 
REMARK   52  A    between atoms: C_126  and  C_130 
REMARK   53  A    between atoms: C_128  and  C_132 
REMARK   54  A    between atoms: N_129  and  C_130 
REMARK   55  A    between atoms: C_132  and  C_137 
REMARK   56  A    between atoms: C_135  and  C_136 
REMARK   57  A    between atoms: C_136  and  C_137 
REMARK   58  A    between atoms: C_137  and  N_140 
ROOT
HETATM    1  C   UNL     1      -7.300   0.458   0.439  1.00  0.00     0.186 C 
HETATM    2  C   UNL     1      -6.538   1.449   1.401  1.00  0.00     0.179 C 
HETATM    3  C   UNL     1      -6.457  -0.756  -0.066  1.00  0.00     0.188 C 
HETATM    4  C   UNL     1      -5.352  -1.197   0.937  1.00  0.00     0.306 C 
HETATM    5  C   UNL     1      -4.565   0.145   1.089  1.00  0.00     0.296 C 
HETATM    6  O   UNL     1      -5.289   0.975   1.974  1.00  0.00    -0.349 OA
ENDROOT
BRANCH   1   7
HETATM    7  O   UNL     1      -8.506   0.000   1.079  1.00  0.00    -0.348 OA
BRANCH   7   8
HETATM    8  C   UNL     1      -9.697   0.141   0.280  1.00  0.00     0.296 C 
HETATM    9  O   UNL     1     -10.534   1.097   0.937  1.00  0.00    -0.349 OA
HETATM   10  C   UNL     1     -11.818   1.329   0.320  1.00  0.00     0.179 C 
HETATM   11  C   UNL     1     -12.564   0.014   0.002  1.00  0.00     0.186 C 
HETATM   12  C   UNL     1     -11.849  -1.181   0.653  1.00  0.00     0.187 C 
HETATM   13  C   UNL     1     -10.408  -1.248   0.126  1.00  0.00     0.303 C 
BRANCH  10  14
HETATM   14  C   UNL     1     -11.669   2.219  -0.929  1.00  0.00     0.198 C 
BRANCH  14  15
HETATM   15  O   UNL     1     -10.814   3.334  -0.687  1.00  0.00    -0.398 OA
HETATM   16  H   UNL     1     -11.014   3.669   0.207  1.00  0.00     0.209 HD
ENDBRANCH  14  15
ENDBRANCH  10  14
BRANCH  11  17
HETATM   17  O   UNL     1     -13.909   0.018   0.488  1.00  0.00    -0.348 OA
BRANCH  17  18
HETATM   18  C   UNL     1     -14.880   0.537  -0.413  1.00  0.00     0.296 C 
HETATM   19  O   UNL     1     -15.292   1.826   0.029  1.00  0.00    -0.351 OA
HETATM   20  C   UNL     1     -16.681   2.152  -0.136  1.00  0.00     0.150 C 
HETATM   21  C   UNL     1     -17.234   1.608  -1.450  1.00  0.00     0.068 C 
HETATM   22  C   UNL     1     -17.020   0.096  -1.598  1.00  0.00     0.158 C 
HETATM   23  C   UNL     1     -16.016  -0.512  -0.584  1.00  0.00     0.303 C 
BRANCH  20  24
HETATM   24  C   UNL     1     -16.840   3.681  -0.058  1.00  0.00     0.196 C 
BRANCH  24  25
HETATM   25  O   UNL     1     -16.586   4.125   1.274  1.00  0.00    -0.398 OA
HETATM   26  H   UNL     1     -16.691   5.092   1.283  1.00  0.00     0.209 HD
ENDBRANCH  24  25
ENDBRANCH  20  24
BRANCH  22  27
HETATM   27  O   UNL     1     -18.283  -0.574  -1.499  1.00  0.00    -0.393 OA
HETATM   28  H   UNL     1     -18.290  -0.967  -0.600  1.00  0.00     0.210 HD
ENDBRANCH  22  27
BRANCH  23  29
HETATM   29  N   UNL     1     -16.775  -0.930   0.630  1.00  0.00     0.097 N 
HETATM   30  H   UNL     1     -16.905  -0.087   1.197  1.00  0.00     0.316 HD
BRANCH  29  31
HETATM   31  C   UNL     1     -16.104  -1.877   1.538  1.00  0.00     0.296 C 
BRANCH  31  32
HETATM   32  C   UNL     1     -16.957  -3.127   2.006  1.00  0.00     0.120 C 
BRANCH  32  33
HETATM   33  C   UNL     1     -16.840  -4.268   0.934  1.00  0.00     0.053 C 
BRANCH  33  34
HETATM   34  C   UNL     1     -17.315  -5.743   1.250  1.00  0.00     0.094 C 
BRANCH  34  35
HETATM   35  C   UNL     1     -16.547  -6.244   2.564  1.00  0.00     0.051 C 
BRANCH  35  36
HETATM   36  C   UNL     1     -16.794  -7.631   3.253  1.00  0.00     0.094 C 
BRANCH  36  37
HETATM   37  C   UNL     1     -15.536  -8.199   4.001  1.00  0.00     0.051 C 
BRANCH  37  38
HETATM   38  C   UNL     1     -15.088  -9.632   3.578  1.00  0.00     0.094 C 
BRANCH  38  39
HETATM   39  C   UNL     1     -13.790 -10.102   4.327  1.00  0.00     0.051 C 
BRANCH  39  40
HETATM   40  C   UNL     1     -13.804 -11.231   5.395  1.00  0.00     0.089 C 
HETATM   41  C   UNL     1     -12.358 -11.659   5.703  1.00  0.00     0.033 C 
BRANCH  40  42
HETATM   42  N   UNL     1     -14.464 -10.924   6.655  1.00  0.00    -0.334 N 
HETATM   43  C   UNL     1     -14.954 -11.854   7.534  1.00  0.00     0.210 A 
HETATM   44  N   UNL     1     -15.477 -11.286   8.595  1.00  0.00    -0.254 NA
HETATM   45  C   UNL     1     -15.306  -9.940   8.401  1.00  0.00     0.150 A 
HETATM   46  C   UNL     1     -14.661  -9.690   7.210  1.00  0.00     0.082 A 
ENDBRANCH  40  42
ENDBRANCH  39  40
ENDBRANCH  38  39
BRANCH  38  47
HETATM   47  N   UNL     1     -16.145 -10.622   3.429  1.00  0.00    -0.339 N 
HETATM   48  C   UNL     1     -16.848 -11.216   4.442  1.00  0.00     0.209 C 
HETATM   49  N   UNL     1     -17.603 -12.195   4.005  1.00  0.00    -0.254 NA
HETATM   50  C   UNL     1     -17.523 -12.131   2.648  1.00  0.00     0.142 C 
HETATM   51  C   UNL     1     -16.680 -11.113   2.248  1.00  0.00     0.026 C 
HETATM   52  C   UNL     1     -16.456 -10.609   0.871  1.00  0.00     0.070 C 
ENDBRANCH  38  47
ENDBRANCH  37  38
ENDBRANCH  36  37
BRANCH  36  53
HETATM   53  N   UNL     1     -17.887  -7.571   4.229  1.00  0.00    -0.345 N 
HETATM   54  C   UNL     1     -18.897  -8.480   4.377  1.00  0.00     0.209 A 
HETATM   55  N   UNL     1     -19.635  -8.211   5.430  1.00  0.00    -0.255 NA
HETATM   56  C   UNL     1     -19.080  -7.098   5.994  1.00  0.00     0.135 A 
HETATM   57  C   UNL     1     -17.972  -6.701   5.286  1.00  0.00     0.111 A 
ENDBRANCH  36  53
ENDBRANCH  35  36
ENDBRANCH  34  35
BRANCH  34  58
HETATM   58  N   UNL     1     -18.735  -6.044   1.026  1.00  0.00    -0.339 N 
HETATM   59  C   UNL     1     -19.264  -7.309   1.176  1.00  0.00     0.209 C 
HETATM   60  N   UNL     1     -20.530  -7.392   0.859  1.00  0.00    -0.254 NA
HETATM   61  C   UNL     1     -20.830  -6.178   0.346  1.00  0.00     0.142 C 
HETATM   62  C   UNL     1     -19.715  -5.359   0.309  1.00  0.00     0.026 C 
HETATM   63  C   UNL     1     -19.645  -4.079  -0.438  1.00  0.00     0.070 C 
ENDBRANCH  34  58
ENDBRANCH  33  34
ENDBRANCH  32  33
BRANCH  32  64
HETATM   64  N   UNL     1     -18.302  -2.841   2.512  1.00  0.00    -0.344 N 
HETATM   65  C   UNL     1     -19.100  -1.742   2.325  1.00  0.00     0.111 A 
HETATM   66  C   UNL     1     -20.252  -1.972   3.036  1.00  0.00     0.135 A 
HETATM   67  N   UNL     1     -20.174  -3.159   3.693  1.00  0.00    -0.255 NA
HETATM   68  C   UNL     1     -19.003  -3.654   3.368  1.00  0.00     0.209 A 
ENDBRANCH  32  64
ENDBRANCH  31  32
ENDBRANCH  29  31
ENDBRANCH  23  29
ENDBRANCH  17  18
ENDBRANCH  11  17
BRANCH  12  69
HETATM   69  O   UNL     1     -11.864  -1.100   2.088  1.00  0.00    -0.391 OA
HETATM   70  H   UNL     1     -11.399  -0.277   2.340  1.00  0.00     0.210 HD
ENDBRANCH  12  69
BRANCH  13  71
HETATM   71  N   UNL     1      -9.698  -2.381   0.754  1.00  0.00     0.090 N 
HETATM   72  H   UNL     1      -9.752  -2.211   1.763  1.00  0.00     0.313 HD
HETATM   73  H   UNL     1      -8.703  -2.228   0.541  1.00  0.00     0.313 HD
ENDBRANCH  13  71
ENDBRANCH   7   8
ENDBRANCH   1   7
BRANCH   2  74
HETATM   74  C   UNL     1      -6.285   2.789   0.665  1.00  0.00     0.198 C 
BRANCH  74  75
HETATM   75  O   UNL     1      -5.635   3.724   1.517  1.00  0.00    -0.398 OA
HETATM   76  H   UNL     1      -5.626   4.587   1.067  1.00  0.00     0.209 HD
ENDBRANCH  74  75
ENDBRANCH   2  74
BRANCH   3  77
HETATM   77  O   UNL     1      -7.275  -1.844  -0.507  1.00  0.00    -0.391 OA
HETATM   78  H   UNL     1      -6.732  -2.651  -0.520  1.00  0.00     0.210 HD
ENDBRANCH   3  77
BRANCH   4  79
HETATM   79  N   UNL     1      -6.026  -1.905   2.070  1.00  0.00     0.097 N 
HETATM   80  H   UNL     1      -6.387  -2.797   1.746  1.00  0.00     0.316 HD
BRANCH  79  81
HETATM   81  C   UNL     1      -5.330  -2.037   3.362  1.00  0.00     0.296 C 
BRANCH  81  82
HETATM   82  C   UNL     1      -6.044  -2.974   4.475  1.00  0.00     0.120 C 
BRANCH  82  83
HETATM   83  N   UNL     1      -7.175  -2.328   5.138  1.00  0.00    -0.344 N 
HETATM   84  C   UNL     1      -7.931  -1.272   4.697  1.00  0.00     0.111 A 
HETATM   85  C   UNL     1      -8.842  -1.021   5.698  1.00  0.00     0.135 A 
HETATM   86  N   UNL     1      -8.638  -1.864   6.753  1.00  0.00    -0.255 NA
HETATM   87  C   UNL     1      -7.616  -2.610   6.405  1.00  0.00     0.209 A 
ENDBRANCH  82  83
BRANCH  82  88
HETATM   88  C   UNL     1      -6.301  -4.422   3.914  1.00  0.00     0.053 C 
BRANCH  88  89
HETATM   89  C   UNL     1      -6.796  -5.682   4.747  1.00  0.00     0.094 C 
BRANCH  89  90
HETATM   90  C   UNL     1      -6.021  -5.985   6.113  1.00  0.00     0.051 C 
BRANCH  90  91
HETATM   91  C   UNL     1      -6.331  -7.323   6.933  1.00  0.00     0.094 C 
BRANCH  91  92
HETATM   92  N   UNL     1      -7.431  -7.158   7.891  1.00  0.00    -0.345 N 
HETATM   93  C   UNL     1      -7.595  -6.127   8.778  1.00  0.00     0.111 A 
HETATM   94  C   UNL     1      -8.605  -6.530   9.620  1.00  0.00     0.135 A 
HETATM   95  N   UNL     1      -9.043  -7.779   9.282  1.00  0.00    -0.255 NA
HETATM   96  C   UNL     1      -8.333  -8.129   8.234  1.00  0.00     0.209 A 
ENDBRANCH  91  92
BRANCH  91  97
HETATM   97  C   UNL     1      -5.112  -7.935   7.726  1.00  0.00     0.051 C 
BRANCH  97  98
HETATM   98  C   UNL     1      -4.767  -9.458   7.488  1.00  0.00     0.094 C 
BRANCH  98  99
HETATM   99  C   UNL     1      -3.428  -9.864   8.243  1.00  0.00     0.051 C 
BRANCH  99 100
HETATM  100  C   UNL     1      -3.343 -11.038   9.270  1.00  0.00     0.089 C 
HETATM  101  C   UNL     1      -1.871 -11.431   9.500  1.00  0.00     0.033 C 
BRANCH 100 102
HETATM  102  N   UNL     1      -3.938 -10.785  10.577  1.00  0.00    -0.334 N 
HETATM  103  C   UNL     1      -4.156  -9.568  11.165  1.00  0.00     0.082 A 
HETATM  104  C   UNL     1      -4.731  -9.864  12.381  1.00  0.00     0.150 A 
HETATM  105  N   UNL     1      -4.830 -11.219  12.562  1.00  0.00    -0.254 NA
HETATM  106  C   UNL     1      -4.350 -11.749  11.460  1.00  0.00     0.210 A 
ENDBRANCH 100 102
ENDBRANCH  99 100
ENDBRANCH  98  99
BRANCH  98 107
HETATM  107  N   UNL     1      -5.838 -10.446   7.517  1.00  0.00    -0.339 N 
HETATM  108  C   UNL     1      -6.351 -11.073   8.619  1.00  0.00     0.209 C 
HETATM  109  N   UNL     1      -6.828 -12.260   8.319  1.00  0.00    -0.254 NA
HETATM  110  C   UNL     1      -6.879 -12.288   6.960  1.00  0.00     0.142 C 
HETATM  111  C   UNL     1      -6.399 -11.105   6.435  1.00  0.00     0.026 C 
HETATM  112  C   UNL     1      -6.562 -10.598   5.058  1.00  0.00     0.070 C 
ENDBRANCH  98 107
ENDBRANCH  97  98
ENDBRANCH  91  97
ENDBRANCH  90  91
ENDBRANCH  89  90
BRANCH  89 113
HETATM  113  N   UNL     1      -8.218  -6.057   4.648  1.00  0.00    -0.339 N 
HETATM  114  C   UNL     1      -9.383  -5.393   4.313  1.00  0.00     0.026 C 
HETATM  115  C   UNL     1     -10.380  -6.355   4.356  1.00  0.00     0.142 C 
HETATM  116  C   UNL     1      -9.622  -3.992   3.918  1.00  0.00     0.070 C 
HETATM  117  N   UNL     1      -9.861  -7.598   4.505  1.00  0.00    -0.254 NA
HETATM  118  C   UNL     1      -8.582  -7.393   4.589  1.00  0.00     0.209 C 
ENDBRANCH  89 113
ENDBRANCH  88  89
ENDBRANCH  82  88
ENDBRANCH  81  82
ENDBRANCH  79  81
ENDBRANCH   4  79
BRANCH   5 119
HETATM  119  O   UNL     1      -3.180  -0.046   1.418  1.00  0.00    -0.348 OA
BRANCH 119 120
HETATM  120  C   UNL     1      -2.282   0.388   0.349  1.00  0.00     0.186 C 
HETATM  121  C   UNL     1      -1.623   1.757   0.653  1.00  0.00     0.179 C 
HETATM  122  O   UNL     1      -0.213   1.657   0.910  1.00  0.00    -0.349 OA
HETATM  123  C   UNL     1       0.585   1.064  -0.120  1.00  0.00     0.296 C 
HETATM  124  C   UNL     1      -0.088  -0.188  -0.777  1.00  0.00     0.303 C 
HETATM  125  C   UNL     1      -1.241  -0.722   0.101  1.00  0.00     0.187 C 
BRANCH 121 126
HETATM  126  C   UNL     1      -1.859   2.774  -0.483  1.00  0.00     0.198 C 
BRANCH 126 127
HETATM  127  O   UNL     1      -1.200   4.008  -0.219  1.00  0.00    -0.398 OA
HETATM  128  H   UNL     1      -0.510   3.844   0.454  1.00  0.00     0.209 HD
ENDBRANCH 126 127
ENDBRANCH 121 126
BRANCH 123 129
HETATM  129  O   UNL     1       1.835   0.694   0.476  1.00  0.00    -0.348 OA
BRANCH 129 130
HETATM  130  C   UNL     1       3.015   1.161  -0.199  1.00  0.00     0.186 C 
HETATM  131  C   UNL     1       3.447   2.545   0.345  1.00  0.00     0.176 C 
HETATM  132  O   UNL     1       4.884   2.662   0.502  1.00  0.00    -0.379 OA
HETATM  133  C   UNL     1       5.629   2.111  -0.586  1.00  0.00     0.206 C 
HETATM  134  C   UNL     1       5.450   0.580  -0.676  1.00  0.00     0.272 C 
HETATM  135  C   UNL     1       4.151   0.139   0.044  1.00  0.00     0.184 C 
BRANCH 131 136
HETATM  136  C   UNL     1       2.954   3.714  -0.519  1.00  0.00     0.198 C 
BRANCH 136 137
HETATM  137  O   UNL     1       3.404   4.951   0.032  1.00  0.00    -0.398 OA
HETATM  138  H   UNL     1       4.308   4.791   0.368  1.00  0.00     0.209 HD
ENDBRANCH 136 137
ENDBRANCH 131 136
BRANCH 134 139
HETATM  139  N   UNL     1       6.607  -0.172  -0.146  1.00  0.00     0.087 N 
HETATM  140  H   UNL     1       6.306  -0.631   0.723  1.00  0.00     0.313 HD
HETATM  141  H   UNL     1       7.358   0.456   0.136  1.00  0.00     0.313 HD
ENDBRANCH 134 139
BRANCH 135 142
HETATM  142  O   UNL     1       4.422  -0.022   1.453  1.00  0.00    -0.391 OA
HETATM  143  H   UNL     1       4.692   0.853   1.792  1.00  0.00     0.210 HD
ENDBRANCH 135 142
ENDBRANCH 129 130
ENDBRANCH 123 129
BRANCH 124 144
HETATM  144  N   UNL     1       0.882  -1.248  -1.138  1.00  0.00     0.090 N 
HETATM  145  H   UNL     1       0.400  -2.146  -1.183  1.00  0.00     0.313 HD
HETATM  146  H   UNL     1       1.485  -1.351  -0.309  1.00  0.00     0.313 HD
ENDBRANCH 124 144
BRANCH 125 147
HETATM  147  O   UNL     1      -0.753  -1.291   1.316  1.00  0.00    -0.391 OA
HETATM  148  H   UNL     1      -1.309  -0.937   2.038  1.00  0.00     0.210 HD
ENDBRANCH 125 147
ENDBRANCH 119 120
ENDBRANCH   5 119
TORSDOF 58
