REMARK WARNING: 32 MAX_TORS EXCEEDED!!!
REMARK  60 active torsions:
REMARK  status: ('A' for Active; 'I' for Inactive)
REMARK    1  A    between atoms: C_1  and  O_30 
REMARK    2  A    between atoms: C_3  and  O_9 
REMARK    3  A    between atoms: C_4  and  O_11 
REMARK    4  A    between atoms: O_11  and  C_106 
REMARK    5  A    between atoms: O_14  and  C_18 
REMARK    6  A    between atoms: O_19  and  C_22 
REMARK    7  A    between atoms: O_19  and  C_42 
REMARK    8  A    between atoms: O_21  and  C_24 
REMARK    9  A    between atoms: O_26  and  C_29 
REMARK   10  A    between atoms: C_28  and  C_34 
REMARK   11  A    between atoms: O_30  and  C_33 
REMARK   12  A    between atoms: C_31  and  O_53 
REMARK   13  A    between atoms: O_32  and  C_35 
REMARK   14  A    between atoms: C_34  and  O_59 
REMARK   15  A    between atoms: O_37  and  C_41 
REMARK   16  A    between atoms: C_39  and  C_45 
REMARK   17  A    between atoms: O_40  and  C_45 
REMARK   18  A    between atoms: O_40  and  C_157 
REMARK   19  A    between atoms: O_43  and  C_46 
REMARK   20  A    between atoms: O_48  and  C_52 
REMARK   21  A    between atoms: C_50  and  C_57 
REMARK   22  A    between atoms: O_51  and  C_57 
REMARK   23  A    between atoms: O_51  and  C_135 
REMARK   24  A    between atoms: O_53  and  C_56 
REMARK   25  A    between atoms: O_55  and  C_58 
REMARK   26  A    between atoms: O_55  and  C_60 
REMARK   27  A    between atoms: O_59  and  C_141 
REMARK   28  A    between atoms: C_60  and  C_61 
REMARK   29  A    between atoms: C_61  and  C_62 
REMARK   30  A    between atoms: C_61  and  N_75 
REMARK   31  A    between atoms: C_62  and  C_63 
REMARK   32  A    between atoms: C_63  and  C_64 
REMARK   33  A    between atoms: C_63  and  N_89 
REMARK   34  A    between atoms: C_64  and  C_65 
REMARK   35  A    between atoms: C_65  and  C_66 
REMARK   36  A    between atoms: C_65  and  N_79 
REMARK   37  A    between atoms: C_66  and  C_67 
REMARK   38  A    between atoms: C_67  and  C_68 
REMARK   39  A    between atoms: C_67  and  N_94 
REMARK   40  A    between atoms: C_68  and  C_69 
REMARK   41  A    between atoms: C_69  and  N_84 
REMARK   42  A    between atoms: N_101  and  C_107 
REMARK   43  A    between atoms: C_106  and  C_107 
REMARK   44  A    between atoms: C_107  and  C_114 
REMARK   45  A    between atoms: N_110  and  C_116 
REMARK   46  A    between atoms: C_112  and  C_116 
REMARK   47  A    between atoms: C_112  and  C_118 
REMARK   48  A    between atoms: N_113  and  C_123 
REMARK   49  A    between atoms: C_114  and  C_118 
REMARK   50  A    between atoms: C_116  and  C_120 
REMARK   51  A    between atoms: N_117  and  C_118 
REMARK   52  A    between atoms: C_120  and  C_125 
REMARK   53  A    between atoms: C_123  and  C_124 
REMARK   54  A    between atoms: C_124  and  C_125 
REMARK   55  A    between atoms: C_125  and  N_128 
REMARK   56  A    between atoms: C_135  and  C_136 
REMARK   57  A    between atoms: C_136  and  O_138 
REMARK   58  A    between atoms: C_141  and  C_142 
REMARK   59  A    between atoms: C_142  and  O_143 
REMARK   60  A    between atoms: C_157  and  O_158 
ROOT
HETATM    1  C   UNL     1      -7.328   0.400   0.559  1.00  0.00     0.187 C 
HETATM    2  C   UNL     1      -6.471   1.400   1.436  1.00  0.00     0.180 C 
HETATM    3  C   UNL     1      -6.512  -0.807  -0.010  1.00  0.00     0.183 C 
HETATM    4  C   UNL     1      -5.401  -1.303   0.970  1.00  0.00     0.208 C 
HETATM    5  C   UNL     1      -4.590   0.001   1.226  1.00  0.00     0.292 C 
HETATM    6  C   UNL     1      -6.046   2.712   0.698  1.00  0.00     0.203 C 
HETATM    7  O   UNL     1      -5.372   3.720   1.455  1.00  0.00    -0.370 OA
HETATM    8  O   UNL     1      -5.358   0.797   2.108  1.00  0.00    -0.348 OA
HETATM    9  O   UNL     1      -3.264  -0.220   1.733  1.00  0.00    -0.348 OA
HETATM   10  O   UNL     1       0.013   1.260   1.517  1.00  0.00    -0.348 OA
HETATM   11  C   UNL     1      -1.399   1.451   1.518  1.00  0.00     0.180 C 
HETATM   12  O   UNL     1      -0.925   3.835   1.465  1.00  0.00    -0.304 OA
HETATM   13  C   UNL     1      -1.264  -0.838   0.384  1.00  0.00     0.183 C 
HETATM   14  C   UNL     1      -2.212   0.283   0.866  1.00  0.00     0.187 C 
HETATM   15  C   UNL     1       0.631   0.888   0.290  1.00  0.00     0.292 C 
HETATM   16  C   UNL     1      -1.729   2.836   0.929  1.00  0.00     0.215 C 
HETATM   17  C   UNL     1      -0.203  -0.151  -0.513  1.00  0.00     0.204 C 
HETATM   18 NA   UNL     1      -4.946   2.761   5.857  1.00  0.00     0.050 Na
HETATM   19  C   UNL     1      -5.286   3.430   2.831  1.00  0.00     0.261 C 
HETATM   20  C   UNL     1      -5.548   4.633   3.681  1.00  0.00     0.310 C 
HETATM   21  O   UNL     1      -5.469   4.522   5.021  1.00  0.00    -0.185 OA
HETATM   22  O   UNL     1      -5.822   5.711   3.179  1.00  0.00    -0.261 OA
HETATM   23 NA   UNL     1      -2.106   3.882   5.381  1.00  0.00     0.051 Na
HETATM   24  C   UNL     1       0.148   3.638   3.550  1.00  0.00     0.146 C 
HETATM   25  C   UNL     1      -0.920   4.318   2.740  1.00  0.00     0.314 C 
HETATM   26  O   UNL     1      -2.084   4.099   3.379  1.00  0.00    -0.172 OA
HETATM   27  O   UNL     1      -0.633   5.504   2.735  1.00  0.00    -0.242 OA
ENDROOT
BRANCH   1  28
HETATM   28  O   UNL     1      -8.432  -0.075   1.321  1.00  0.00    -0.348 OA
BRANCH  28  29
HETATM   29  C   UNL     1      -9.695   0.044   0.645  1.00  0.00     0.292 C 
HETATM   30  O   UNL     1     -10.473   1.043   1.295  1.00  0.00    -0.348 OA
HETATM   31  C   UNL     1     -11.791   1.236   0.750  1.00  0.00     0.180 C 
HETATM   32  C   UNL     1     -12.509  -0.075   0.288  1.00  0.00     0.187 C 
HETATM   33  C   UNL     1     -11.884  -1.276   0.995  1.00  0.00     0.183 C 
HETATM   34  C   UNL     1     -10.393  -1.350   0.614  1.00  0.00     0.204 C 
BRANCH  31  35
HETATM   35  C   UNL     1     -11.819   2.314  -0.369  1.00  0.00     0.203 C 
BRANCH  35  36
HETATM   36  O   UNL     1     -11.623   3.633   0.092  1.00  0.00    -0.370 OA
BRANCH  36  37
HETATM   37  C   UNL     1     -10.314   3.795   0.561  1.00  0.00     0.262 C 
BRANCH  37  38
HETATM   38  C   UNL     1     -10.268   5.005   1.435  1.00  0.00     0.321 C 
HETATM   39  O   UNL     1     -10.490   6.111   0.966  1.00  0.00    -0.260 OA
BRANCH  38  40
HETATM   40  O   UNL     1     -10.009   4.876   2.748  1.00  0.00    -0.147 OA
HETATM   41 NA   UNL     1      -9.769   3.046   3.548  1.00  0.00     0.000 Na
ENDBRANCH  38  40
ENDBRANCH  37  38
ENDBRANCH  36  37
ENDBRANCH  35  36
ENDBRANCH  31  35
BRANCH  32  42
HETATM   42  O   UNL     1     -13.883  -0.048   0.657  1.00  0.00    -0.348 OA
BRANCH  42  43
HETATM   43  C   UNL     1     -14.777   0.377  -0.350  1.00  0.00     0.292 C 
HETATM   44  O   UNL     1     -15.204   1.703  -0.027  1.00  0.00    -0.351 OA
HETATM   45  C   UNL     1     -16.607   1.904  -0.008  1.00  0.00     0.151 C 
HETATM   46  C   UNL     1     -17.261   1.367  -1.302  1.00  0.00     0.068 C 
HETATM   47  C   UNL     1     -16.905  -0.121  -1.570  1.00  0.00     0.154 C 
HETATM   48  C   UNL     1     -15.918  -0.692  -0.528  1.00  0.00     0.205 C 
BRANCH  45  49
HETATM   49  C   UNL     1     -16.887   3.417   0.120  1.00  0.00     0.200 C 
BRANCH  49  50
HETATM   50  O   UNL     1     -16.146   4.029   1.160  1.00  0.00    -0.379 OA
BRANCH  50  51
HETATM   51  C   UNL     1     -16.626   3.683   2.445  1.00  0.00     0.281 C 
BRANCH  51  52
HETATM   52  C   UNL     1     -16.427   4.838   3.386  1.00  0.00     0.313 C 
HETATM   53  O   UNL     1     -15.983   5.903   2.985  1.00  0.00    -0.260 OA
BRANCH  52  54
HETATM   54  O   UNL     1     -16.737   4.702   4.689  1.00  0.00    -0.148 OA
HETATM   55 NA   UNL     1     -17.387   2.942   5.417  1.00  0.00     0.000 Na
ENDBRANCH  52  54
ENDBRANCH  51  52
ENDBRANCH  50  51
ENDBRANCH  49  50
ENDBRANCH  45  49
BRANCH  47  56
HETATM   56  O   UNL     1     -18.054  -0.924  -1.684  1.00  0.00    -0.393 OA
HETATM   57  H   UNL     1     -18.618  -0.762  -0.881  1.00  0.00     0.210 HD
ENDBRANCH  47  56
BRANCH  48  58
HETATM   58  O   UNL     1     -16.654  -0.974   0.655  1.00  0.00    -0.376 OA
BRANCH  58  59
HETATM   59  C   UNL     1     -15.959  -1.742   1.626  1.00  0.00     0.194 C 
BRANCH  59  60
HETATM   60  C   UNL     1     -16.709  -3.033   2.083  1.00  0.00     0.116 C 
BRANCH  60  61
HETATM   61  C   UNL     1     -16.605  -4.155   0.987  1.00  0.00     0.053 C 
BRANCH  61  62
HETATM   62  C   UNL     1     -17.017  -5.640   1.317  1.00  0.00     0.094 C 
BRANCH  62  63
HETATM   63  C   UNL     1     -16.333  -6.130   2.657  1.00  0.00     0.051 C 
BRANCH  63  64
HETATM   64  C   UNL     1     -16.587  -7.585   3.178  1.00  0.00     0.094 C 
BRANCH  64  65
HETATM   65  C   UNL     1     -15.411  -8.125   4.069  1.00  0.00     0.051 C 
BRANCH  65  66
HETATM   66  C   UNL     1     -14.876  -9.493   3.561  1.00  0.00     0.094 C 
BRANCH  66  67
HETATM   67  C   UNL     1     -13.628 -10.067   4.312  1.00  0.00     0.051 C 
BRANCH  67  68
HETATM   68  C   UNL     1     -13.800 -11.174   5.400  1.00  0.00     0.089 C 
HETATM   69  C   UNL     1     -12.422 -11.762   5.750  1.00  0.00     0.033 C 
BRANCH  68  70
HETATM   70  N   UNL     1     -14.450 -10.755   6.631  1.00  0.00    -0.334 N 
HETATM   71  C   UNL     1     -14.831 -11.614   7.680  1.00  0.00     0.210 A 
HETATM   72  N   UNL     1     -15.384 -10.971   8.634  1.00  0.00    -0.254 NA
HETATM   73  C   UNL     1     -15.387  -9.611   8.250  1.00  0.00     0.150 A 
HETATM   74  C   UNL     1     -14.825  -9.466   7.052  1.00  0.00     0.082 A 
ENDBRANCH  68  70
ENDBRANCH  67  68
ENDBRANCH  66  67
BRANCH  66  75
HETATM   75  N   UNL     1     -15.947 -10.489   3.403  1.00  0.00    -0.345 N 
HETATM   76  C   UNL     1     -16.780 -10.981   4.345  1.00  0.00     0.209 A 
HETATM   77  N   UNL     1     -17.653 -11.873   3.834  1.00  0.00    -0.255 NA
HETATM   78  C   UNL     1     -17.356 -11.936   2.521  1.00  0.00     0.135 A 
HETATM   79  C   UNL     1     -16.310 -11.083   2.252  1.00  0.00     0.111 A 
ENDBRANCH  66  75
ENDBRANCH  65  66
ENDBRANCH  64  65
BRANCH  64  80
HETATM   80  N   UNL     1     -17.825  -7.657   3.982  1.00  0.00    -0.345 N 
HETATM   81  C   UNL     1     -18.886  -8.477   3.832  1.00  0.00     0.209 A 
HETATM   82  N   UNL     1     -19.822  -8.280   4.784  1.00  0.00    -0.255 NA
HETATM   83  C   UNL     1     -19.323  -7.305   5.568  1.00  0.00     0.135 A 
HETATM   84  C   UNL     1     -18.094  -6.926   5.085  1.00  0.00     0.111 A 
ENDBRANCH  64  80
ENDBRANCH  63  64
ENDBRANCH  62  63
BRANCH  62  85
HETATM   85  N   UNL     1     -18.465  -5.902   1.142  1.00  0.00    -0.345 N 
HETATM   86  C   UNL     1     -19.045  -7.121   1.102  1.00  0.00     0.209 A 
HETATM   87  N   UNL     1     -20.366  -7.065   0.847  1.00  0.00    -0.255 NA
HETATM   88  C   UNL     1     -20.628  -5.757   0.688  1.00  0.00     0.135 A 
HETATM   89  C   UNL     1     -19.463  -5.043   0.842  1.00  0.00     0.111 A 
ENDBRANCH  62  85
ENDBRANCH  61  62
ENDBRANCH  60  61
BRANCH  60  90
HETATM   90  N   UNL     1     -18.083  -2.768   2.575  1.00  0.00    -0.343 N 
HETATM   91  C   UNL     1     -18.852  -1.664   2.429  1.00  0.00     0.111 A 
HETATM   92  C   UNL     1     -20.052  -1.879   3.065  1.00  0.00     0.135 A 
HETATM   93  N   UNL     1     -20.041  -3.099   3.629  1.00  0.00    -0.255 NA
HETATM   94  C   UNL     1     -18.833  -3.610   3.323  1.00  0.00     0.209 A 
ENDBRANCH  60  90
ENDBRANCH  59  60
ENDBRANCH  58  59
ENDBRANCH  48  58
ENDBRANCH  42  43
ENDBRANCH  32  42
BRANCH  33  95
HETATM   95  O   UNL     1     -12.094  -1.207   2.388  1.00  0.00    -0.390 OA
HETATM   96  H   UNL     1     -11.459  -0.561   2.789  1.00  0.00     0.210 HD
ENDBRANCH  33  95
BRANCH  34  97
HETATM   97  O   UNL     1      -9.726  -2.338   1.359  1.00  0.00    -0.388 OA
HETATM   98  H   UNL     1      -9.677  -2.029   2.299  1.00  0.00     0.210 HD
ENDBRANCH  34  97
ENDBRANCH  28  29
ENDBRANCH   1  28
BRANCH   3  99
HETATM   99  O   UNL     1      -7.370  -1.850  -0.393  1.00  0.00    -0.390 OA
HETATM  100  H   UNL     1      -6.841  -2.463  -0.968  1.00  0.00     0.210 HD
ENDBRANCH   3  99
BRANCH   4 101
HETATM  101  O   UNL     1      -6.015  -1.921   2.119  1.00  0.00    -0.376 OA
BRANCH 101 102
HETATM  102  C   UNL     1      -5.135  -2.162   3.216  1.00  0.00     0.194 C 
BRANCH 102 103
HETATM  103  C   UNL     1      -5.762  -3.110   4.323  1.00  0.00     0.116 C 
BRANCH 103 104
HETATM  104  N   UNL     1      -6.999  -2.537   4.912  1.00  0.00    -0.343 N 
HETATM  105  C   UNL     1      -7.719  -1.469   4.502  1.00  0.00     0.111 A 
HETATM  106  C   UNL     1      -8.781  -1.300   5.361  1.00  0.00     0.135 A 
HETATM  107  N   UNL     1      -8.723  -2.237   6.322  1.00  0.00    -0.255 NA
HETATM  108  C   UNL     1      -7.628  -2.967   6.030  1.00  0.00     0.209 A 
ENDBRANCH 103 104
BRANCH 103 109
HETATM  109  C   UNL     1      -5.907  -4.579   3.766  1.00  0.00     0.053 C 
BRANCH 109 110
HETATM  110  C   UNL     1      -6.434  -5.829   4.593  1.00  0.00     0.094 C 
BRANCH 110 111
HETATM  111  C   UNL     1      -5.671  -6.096   5.961  1.00  0.00     0.051 C 
BRANCH 111 112
HETATM  112  C   UNL     1      -6.053  -7.366   6.828  1.00  0.00     0.094 C 
BRANCH 112 113
HETATM  113  N   UNL     1      -7.254  -7.159   7.657  1.00  0.00    -0.345 N 
HETATM  114  C   UNL     1      -7.477  -6.174   8.548  1.00  0.00     0.111 A 
HETATM  115  C   UNL     1      -8.693  -6.413   9.152  1.00  0.00     0.135 A 
HETATM  116  N   UNL     1      -9.219  -7.550   8.659  1.00  0.00    -0.255 NA
HETATM  117  C   UNL     1      -8.318  -7.985   7.758  1.00  0.00     0.209 A 
ENDBRANCH 112 113
BRANCH 112 118
HETATM  118  C   UNL     1      -4.917  -7.885   7.791  1.00  0.00     0.051 C 
BRANCH 118 119
HETATM  119  C   UNL     1      -4.308  -9.237   7.309  1.00  0.00     0.094 C 
BRANCH 119 120
HETATM  120  C   UNL     1      -3.088  -9.792   8.126  1.00  0.00     0.051 C 
BRANCH 120 121
HETATM  121  C   UNL     1      -3.282 -10.925   9.192  1.00  0.00     0.089 C 
HETATM  122  C   UNL     1      -1.913 -11.520   9.567  1.00  0.00     0.033 C 
BRANCH 121 123
HETATM  123  N   UNL     1      -3.963 -10.533  10.415  1.00  0.00    -0.334 N 
HETATM  124  C   UNL     1      -4.360  -9.254  10.848  1.00  0.00     0.082 A 
HETATM  125  C   UNL     1      -4.932  -9.424  12.039  1.00  0.00     0.150 A 
HETATM  126  N   UNL     1      -4.916 -10.789  12.405  1.00  0.00    -0.254 NA
HETATM  127  C   UNL     1      -4.346 -11.412  11.448  1.00  0.00     0.210 A 
ENDBRANCH 121 123
ENDBRANCH 120 121
ENDBRANCH 119 120
BRANCH 119 128
HETATM  128  N   UNL     1      -5.362 -10.259   7.153  1.00  0.00    -0.345 N 
HETATM  129  C   UNL     1      -6.215 -10.722   8.095  1.00  0.00     0.209 A 
HETATM  130  N   UNL     1      -7.070 -11.640   7.604  1.00  0.00    -0.255 NA
HETATM  131  C   UNL     1      -6.743 -11.752   6.302  1.00  0.00     0.135 A 
HETATM  132  C   UNL     1      -5.696 -10.902   6.019  1.00  0.00     0.111 A 
ENDBRANCH 119 128
ENDBRANCH 118 119
ENDBRANCH 112 118
ENDBRANCH 111 112
ENDBRANCH 110 111
BRANCH 110 133
HETATM  133  N   UNL     1      -7.918  -5.921   4.620  1.00  0.00    -0.345 N 
HETATM  134  C   UNL     1      -8.846  -5.022   4.238  1.00  0.00     0.111 A 
HETATM  135  C   UNL     1     -10.092  -5.594   4.362  1.00  0.00     0.135 A 
HETATM  136  N   UNL     1      -9.953  -6.863   4.774  1.00  0.00    -0.255 NA
HETATM  137  C   UNL     1      -8.621  -7.037   4.902  1.00  0.00     0.209 A 
ENDBRANCH 110 133
ENDBRANCH 109 110
ENDBRANCH 103 109
ENDBRANCH 102 103
ENDBRANCH 101 102
ENDBRANCH   4 101
BRANCH  13 138
HETATM  138  O   UNL     1      -0.643  -1.490   1.462  1.00  0.00    -0.390 OA
HETATM  139  H   UNL     1      -1.334  -2.069   1.877  1.00  0.00     0.210 HD
ENDBRANCH  13 138
BRANCH  17 140
HETATM  140  O   UNL     1       0.608  -1.060  -1.217  1.00  0.00    -0.388 OA
HETATM  141  H   UNL     1       0.981  -1.704  -0.562  1.00  0.00     0.210 HD
ENDBRANCH  17 140
BRANCH  15 142
HETATM  142  O   UNL     1       1.878   0.312   0.655  1.00  0.00    -0.348 OA
BRANCH 142 143
HETATM  143  C   UNL     1       3.016   0.898   0.026  1.00  0.00     0.187 C 
HETATM  144  C   UNL     1       3.706   1.983   0.953  1.00  0.00     0.177 C 
HETATM  145  O   UNL     1       5.115   2.134   0.713  1.00  0.00    -0.378 OA
HETATM  146  C   UNL     1       5.464   1.869  -0.625  1.00  0.00     0.202 C 
HETATM  147  C   UNL     1       5.306   0.364  -0.933  1.00  0.00     0.173 C 
HETATM  148  C   UNL     1       4.046  -0.221  -0.228  1.00  0.00     0.180 C 
BRANCH 144 149
HETATM  149  C   UNL     1       3.023   3.360   0.866  1.00  0.00     0.215 C 
BRANCH 149 150
HETATM  150  O   UNL     1       3.484   4.385   1.699  1.00  0.00    -0.303 OA
BRANCH 150 151
HETATM  151  C   UNL     1       4.205   4.524   2.858  1.00  0.00     0.323 C 
HETATM  152  C   UNL     1       5.397   3.616   3.014  1.00  0.00     0.147 C 
HETATM  153  O   UNL     1       4.638   5.664   2.917  1.00  0.00    -0.241 OA
BRANCH 151 154
HETATM  154  O   UNL     1       3.417   4.267   3.921  1.00  0.00    -0.132 OA
HETATM  155 NA   UNL     1       4.196   3.952   5.756  1.00  0.00     0.000 Na
ENDBRANCH 151 154
ENDBRANCH 150 151
ENDBRANCH 149 150
ENDBRANCH 144 149
BRANCH 147 156
HETATM  156  O   UNL     1       6.455  -0.385  -0.615  1.00  0.00    -0.391 OA
HETATM  157  H   UNL     1       6.816  -0.050   0.247  1.00  0.00     0.210 HD
ENDBRANCH 147 156
BRANCH 148 158
HETATM  158  O   UNL     1       4.364  -0.870   0.985  1.00  0.00    -0.390 OA
HETATM  159  H   UNL     1       4.921  -0.272   1.544  1.00  0.00     0.210 HD
ENDBRANCH 148 158
ENDBRANCH 142 143
ENDBRANCH  15 142
TORSDOF 60
