REMARK WARNING: 32 MAX_TORS EXCEEDED!!!
REMARK  61 active torsions:
REMARK  status: ('A' for Active; 'I' for Inactive)
REMARK    1  A    between atoms: C_1  and  O_30 
REMARK    2  A    between atoms: C_2  and  C_6 
REMARK    3  A    between atoms: C_3  and  O_9 
REMARK    4  A    between atoms: C_4  and  O_11 
REMARK    5  A    between atoms: C_5  and  O_12 
REMARK    6  A    between atoms: C_6  and  O_7 
REMARK    7  A    between atoms: O_7  and  C_147 
REMARK    8  A    between atoms: O_11  and  C_107 
REMARK    9  A    between atoms: O_12  and  C_20 
REMARK   10  A    between atoms: O_14  and  C_18 
REMARK   11  A    between atoms: O_21  and  C_24 
REMARK   12  A    between atoms: O_26  and  C_29 
REMARK   13  A    between atoms: C_28  and  C_34 
REMARK   14  A    between atoms: O_30  and  C_33 
REMARK   15  A    between atoms: C_31  and  O_53 
REMARK   16  A    between atoms: O_32  and  C_35 
REMARK   17  A    between atoms: C_34  and  O_59 
REMARK   18  A    between atoms: O_37  and  C_41 
REMARK   19  A    between atoms: O_43  and  C_46 
REMARK   20  A    between atoms: O_48  and  C_52 
REMARK   21  A    between atoms: C_50  and  C_57 
REMARK   22  A    between atoms: O_51  and  C_57 
REMARK   23  A    between atoms: O_51  and  C_60 
REMARK   24  A    between atoms: O_53  and  C_56 
REMARK   25  A    between atoms: O_55  and  C_58 
REMARK   26  A    between atoms: O_55  and  C_61 
REMARK   27  A    between atoms: O_59  and  C_142 
REMARK   28  A    between atoms: C_60  and  C_137 
REMARK   29  A    between atoms: C_61  and  C_62 
REMARK   30  A    between atoms: C_62  and  C_63 
REMARK   31  A    between atoms: C_62  and  N_76 
REMARK   32  A    between atoms: C_63  and  C_64 
REMARK   33  A    between atoms: C_64  and  C_65 
REMARK   34  A    between atoms: C_64  and  N_90 
REMARK   35  A    between atoms: C_65  and  C_66 
REMARK   36  A    between atoms: C_66  and  C_67 
REMARK   37  A    between atoms: C_66  and  N_80 
REMARK   38  A    between atoms: C_67  and  C_68 
REMARK   39  A    between atoms: C_68  and  C_69 
REMARK   40  A    between atoms: C_68  and  N_95 
REMARK   41  A    between atoms: C_69  and  C_70 
REMARK   42  A    between atoms: C_70  and  N_85 
REMARK   43  A    between atoms: N_102  and  C_108 
REMARK   44  A    between atoms: C_107  and  C_108 
REMARK   45  A    between atoms: C_108  and  C_115 
REMARK   46  A    between atoms: N_111  and  C_117 
REMARK   47  A    between atoms: C_113  and  C_117 
REMARK   48  A    between atoms: C_113  and  C_119 
REMARK   49  A    between atoms: N_114  and  C_124 
REMARK   50  A    between atoms: C_115  and  C_119 
REMARK   51  A    between atoms: C_117  and  C_121 
REMARK   52  A    between atoms: N_118  and  C_119 
REMARK   53  A    between atoms: C_121  and  C_126 
REMARK   54  A    between atoms: C_124  and  C_125 
REMARK   55  A    between atoms: C_125  and  C_126 
REMARK   56  A    between atoms: C_126  and  N_129 
REMARK   57  A    between atoms: C_137  and  O_139 
REMARK   58  A    between atoms: C_142  and  C_144 
REMARK   59  A    between atoms: O_143  and  C_144 
REMARK   60  A    between atoms: C_147  and  C_149 
REMARK   61  A    between atoms: O_148  and  C_149 
ROOT
HETATM    1  C   UNL     1      -7.381   0.487   0.440  1.00  0.00     0.187 C 
HETATM    2  C   UNL     1      -6.554   1.507   1.302  1.00  0.00     0.180 C 
HETATM    3  C   UNL     1      -6.474  -0.537  -0.284  1.00  0.00     0.183 C 
HETATM    4  C   UNL     1      -5.396  -1.112   0.686  1.00  0.00     0.208 C 
HETATM    5  C   UNL     1      -4.631   0.148   1.162  1.00  0.00     0.292 C 
HETATM    6  O   UNL     1      -5.470   0.900   2.027  1.00  0.00    -0.348 OA
ENDROOT
BRANCH   1   7
HETATM    7  O   UNL     1      -8.282  -0.222   1.273  1.00  0.00    -0.348 OA
BRANCH   7   8
HETATM    8  C   UNL     1      -9.649  -0.106   0.870  1.00  0.00     0.292 C 
HETATM    9  O   UNL     1     -10.302   0.785   1.751  1.00  0.00    -0.348 OA
HETATM   10  C   UNL     1     -11.669   1.043   1.400  1.00  0.00     0.180 C 
HETATM   11  C   UNL     1     -12.406  -0.149   0.702  1.00  0.00     0.187 C 
HETATM   12  C   UNL     1     -11.819  -1.452   1.240  1.00  0.00     0.183 C 
HETATM   13  C   UNL     1     -10.319  -1.516   0.849  1.00  0.00     0.204 C 
BRANCH  10  14
HETATM   14  C   UNL     1     -11.796   2.339   0.589  1.00  0.00     0.203 C 
BRANCH  14  15
HETATM   15  O   UNL     1     -11.167   3.390   1.289  1.00  0.00    -0.379 OA
BRANCH  15  16
HETATM   16  C   UNL     1     -11.448   4.617   0.653  1.00  0.00     0.281 C 
BRANCH  16  17
HETATM   17  C   UNL     1     -10.681   5.700   1.344  1.00  0.00     0.313 C 
HETATM   18  O   UNL     1      -9.880   6.383   0.726  1.00  0.00    -0.260 OA
BRANCH  17  19
HETATM   19  O   UNL     1     -10.875   5.924   2.658  1.00  0.00    -0.148 OA
HETATM   20 Na   UNL     1     -12.172   4.775   3.688  1.00  0.00     0.000 Na
ENDBRANCH  17  19
ENDBRANCH  16  17
ENDBRANCH  15  16
ENDBRANCH  14  15
ENDBRANCH  10  14
BRANCH  11  21
HETATM   21  O   UNL     1     -13.791  -0.110   1.012  1.00  0.00    -0.348 OA
BRANCH  21  22
HETATM   22  C   UNL     1     -14.620   0.354  -0.038  1.00  0.00     0.292 C 
HETATM   23  O   UNL     1     -15.427   1.405   0.486  1.00  0.00    -0.351 OA
HETATM   24  C   UNL     1     -16.542   1.799  -0.323  1.00  0.00     0.151 C 
HETATM   25  C   UNL     1     -16.483   1.255  -1.769  1.00  0.00     0.068 C 
HETATM   26  C   UNL     1     -16.333  -0.287  -1.786  1.00  0.00     0.154 C 
HETATM   27  C   UNL     1     -15.491  -0.817  -0.583  1.00  0.00     0.205 C 
BRANCH  24  28
HETATM   28  C   UNL     1     -16.591   3.333  -0.351  1.00  0.00     0.200 C 
BRANCH  28  29
HETATM   29  O   UNL     1     -16.623   3.823   0.974  1.00  0.00    -0.379 OA
BRANCH  29  30
HETATM   30  C   UNL     1     -16.792   5.226   0.965  1.00  0.00     0.281 C 
BRANCH  30  31
HETATM   31  C   UNL     1     -16.397   5.769   2.305  1.00  0.00     0.313 C 
HETATM   32  O   UNL     1     -15.505   6.598   2.395  1.00  0.00    -0.260 OA
BRANCH  31  33
HETATM   33  O   UNL     1     -17.026   5.346   3.418  1.00  0.00    -0.148 OA
HETATM   34 Na   UNL     1     -18.487   3.965   3.307  1.00  0.00     0.000 Na
ENDBRANCH  31  33
ENDBRANCH  30  31
ENDBRANCH  29  30
ENDBRANCH  28  29
ENDBRANCH  24  28
BRANCH  26  35
HETATM   35  O   UNL     1     -17.569  -0.955  -1.887  1.00  0.00    -0.393 OA
HETATM   36  H   UNL     1     -18.219  -0.498  -1.291  1.00  0.00     0.210 HD
ENDBRANCH  26  35
BRANCH  27  37
HETATM   37  O   UNL     1     -16.389  -1.403   0.444  1.00  0.00    -0.376 OA
BRANCH  37  38
HETATM   38  C   UNL     1     -15.730  -2.045   1.600  1.00  0.00     0.194 C 
BRANCH  38  39
HETATM   39  C   UNL     1     -16.538  -3.257   2.156  1.00  0.00     0.116 C 
BRANCH  39  40
HETATM   40  C   UNL     1     -16.608  -4.368   1.028  1.00  0.00     0.053 C 
BRANCH  40  41
HETATM   41  C   UNL     1     -17.250  -5.774   1.312  1.00  0.00     0.094 C 
BRANCH  41  42
HETATM   42  C   UNL     1     -16.583  -6.382   2.620  1.00  0.00     0.051 C 
BRANCH  42  43
HETATM   43  C   UNL     1     -17.048  -7.712   3.313  1.00  0.00     0.094 C 
BRANCH  43  44
HETATM   44  C   UNL     1     -15.904  -8.328   4.181  1.00  0.00     0.051 C 
BRANCH  44  45
HETATM   45  C   UNL     1     -15.069  -9.367   3.392  1.00  0.00     0.094 C 
BRANCH  45  46
HETATM   46  C   UNL     1     -13.747  -9.856   4.069  1.00  0.00     0.051 C 
BRANCH  46  47
HETATM   47  C   UNL     1     -13.791 -10.869   5.253  1.00  0.00     0.089 C 
HETATM   48  C   UNL     1     -12.381 -11.424   5.510  1.00  0.00     0.033 C 
BRANCH  47  49
HETATM   49  N   UNL     1     -14.304 -10.321   6.499  1.00  0.00    -0.334 N 
HETATM   50  C   UNL     1     -14.585 -11.059   7.664  1.00  0.00     0.210 A 
HETATM   51  N   UNL     1     -14.968 -10.301   8.618  1.00  0.00    -0.254 NA
HETATM   52  C   UNL     1     -14.946  -8.980   8.114  1.00  0.00     0.150 A 
HETATM   53  C   UNL     1     -14.541  -8.976   6.847  1.00  0.00     0.082 A 
ENDBRANCH  47  49
ENDBRANCH  46  47
ENDBRANCH  45  46
BRANCH  45  54
HETATM   54  N   UNL     1     -15.947 -10.512   3.027  1.00  0.00    -0.339 N 
HETATM   55  C   UNL     1     -16.656 -11.269   3.897  1.00  0.00     0.209 A 
HETATM   56  N   UNL     1     -17.396 -12.213   3.281  1.00  0.00    -0.254 NA
HETATM   57  C   UNL     1     -17.150 -12.044   1.972  1.00  0.00     0.142 A 
HETATM   58  C   UNL     1     -16.263 -10.999   1.807  1.00  0.00     0.026 A 
HETATM   59  C   UNL     1     -15.773 -10.527   0.474  1.00  0.00     0.070 C 
ENDBRANCH  45  54
ENDBRANCH  44  45
ENDBRANCH  43  44
BRANCH  43  60
HETATM   60  N   UNL     1     -18.202  -7.489   4.203  1.00  0.00    -0.345 N 
HETATM   61  C   UNL     1     -19.379  -8.148   4.184  1.00  0.00     0.209 A 
HETATM   62  N   UNL     1     -20.209  -7.739   5.163  1.00  0.00    -0.255 NA
HETATM   63  C   UNL     1     -19.517  -6.795   5.831  1.00  0.00     0.135 A 
HETATM   64  C   UNL     1     -18.277  -6.647   5.252  1.00  0.00     0.111 A 
ENDBRANCH  43  60
ENDBRANCH  42  43
ENDBRANCH  41  42
BRANCH  41  65
HETATM   65  N   UNL     1     -18.724  -5.818   1.195  1.00  0.00    -0.339 N 
HETATM   66  C   UNL     1     -19.477  -7.001   1.347  1.00  0.00     0.209 A 
HETATM   67  N   UNL     1     -20.835  -6.801   1.065  1.00  0.00    -0.254 NA
HETATM   68  C   UNL     1     -20.894  -5.479   0.602  1.00  0.00     0.142 A 
HETATM   69  C   UNL     1     -19.688  -4.907   0.625  1.00  0.00     0.026 A 
HETATM   70  C   UNL     1     -19.486  -3.544   0.007  1.00  0.00     0.070 C 
ENDBRANCH  41  65
ENDBRANCH  40  41
ENDBRANCH  39  40
BRANCH  39  71
HETATM   71  N   UNL     1     -17.828  -2.863   2.787  1.00  0.00    -0.343 N 
HETATM   72  C   UNL     1     -18.350  -1.626   2.967  1.00  0.00     0.111 A 
HETATM   73  C   UNL     1     -19.550  -1.743   3.628  1.00  0.00     0.135 A 
HETATM   74  N   UNL     1     -19.782  -3.039   3.892  1.00  0.00    -0.255 NA
HETATM   75  C   UNL     1     -18.718  -3.689   3.384  1.00  0.00     0.209 A 
ENDBRANCH  39  71
ENDBRANCH  38  39
ENDBRANCH  37  38
ENDBRANCH  27  37
ENDBRANCH  21  22
ENDBRANCH  11  21
BRANCH  12  76
HETATM   76  O   UNL     1     -12.037  -1.552   2.632  1.00  0.00    -0.390 OA
HETATM   77  H   UNL     1     -11.385  -0.982   3.113  1.00  0.00     0.210 HD
ENDBRANCH  12  76
BRANCH  13  78
HETATM   78  O   UNL     1      -9.624  -2.496   1.674  1.00  0.00    -0.388 OA
HETATM   79  H   UNL     1      -9.666  -2.224   2.604  1.00  0.00     0.210 HD
ENDBRANCH  13  78
ENDBRANCH   7   8
ENDBRANCH   1   7
BRANCH   2  80
HETATM   80  C   UNL     1      -6.098   2.748   0.491  1.00  0.00     0.203 C 
BRANCH  80  81
HETATM   81  O   UNL     1      -5.292   3.594   1.290  1.00  0.00    -0.379 OA
BRANCH  81  82
HETATM   82  C   UNL     1      -6.047   4.642   1.857  1.00  0.00     0.281 C 
BRANCH  82  83
HETATM   83  C   UNL     1      -5.131   5.495   2.680  1.00  0.00     0.313 C 
HETATM   84  O   UNL     1      -4.181   6.052   2.153  1.00  0.00    -0.260 OA
BRANCH  83  85
HETATM   85  O   UNL     1      -5.344   5.654   4.001  1.00  0.00    -0.148 OA
HETATM   86 Na   UNL     1      -6.886   4.761   4.940  1.00  0.00     0.000 Na
ENDBRANCH  83  85
ENDBRANCH  82  83
ENDBRANCH  81  82
ENDBRANCH  80  81
ENDBRANCH   2  80
BRANCH   3  87
HETATM   87  O   UNL     1      -7.252  -1.555  -0.859  1.00  0.00    -0.390 OA
HETATM   88  H   UNL     1      -6.670  -2.029  -1.508  1.00  0.00     0.210 HD
ENDBRANCH   3  87
BRANCH   4  89
HETATM   89  O   UNL     1      -6.035  -1.900   1.784  1.00  0.00    -0.376 OA
BRANCH  89  90
HETATM   90  C   UNL     1      -5.124  -2.408   2.833  1.00  0.00     0.194 C 
BRANCH  90  91
HETATM   91  C   UNL     1      -5.836  -3.238   3.979  1.00  0.00     0.116 C 
BRANCH  91  92
HETATM   92  N   UNL     1      -6.752  -2.394   4.787  1.00  0.00    -0.343 N 
HETATM   93  C   UNL     1      -7.174  -1.136   4.529  1.00  0.00     0.111 A 
HETATM   94  C   UNL     1      -7.996  -0.728   5.552  1.00  0.00     0.135 A 
HETATM   95  N   UNL     1      -8.085  -1.711   6.464  1.00  0.00    -0.255 NA
HETATM   96  C   UNL     1      -7.316  -2.706   5.978  1.00  0.00     0.209 A 
ENDBRANCH  91  92
BRANCH  91  97
HETATM   97  C   UNL     1      -6.464  -4.574   3.412  1.00  0.00     0.053 C 
BRANCH  97  98
HETATM   98  C   UNL     1      -6.813  -5.817   4.331  1.00  0.00     0.094 C 
BRANCH  98  99
HETATM   99  C   UNL     1      -5.862  -6.053   5.565  1.00  0.00     0.051 C 
BRANCH  99 100
HETATM  100  C   UNL     1      -6.145  -7.311   6.451  1.00  0.00     0.094 C 
BRANCH 100 101
HETATM  101  N   UNL     1      -7.313  -7.113   7.330  1.00  0.00    -0.345 N 
HETATM  102  C   UNL     1      -7.480  -6.132   8.239  1.00  0.00     0.111 A 
HETATM  103  C   UNL     1      -8.687  -6.331   8.869  1.00  0.00     0.135 A 
HETATM  104  N   UNL     1      -9.270  -7.438   8.370  1.00  0.00    -0.255 NA
HETATM  105  C   UNL     1      -8.407  -7.894   7.440  1.00  0.00     0.209 A 
ENDBRANCH 100 101
BRANCH 100 106
HETATM  106  C   UNL     1      -4.928  -7.740   7.342  1.00  0.00     0.051 C 
BRANCH 106 107
HETATM  107  C   UNL     1      -4.487  -9.196   7.024  1.00  0.00     0.094 C 
BRANCH 107 108
HETATM  108  C   UNL     1      -3.199  -9.715   7.745  1.00  0.00     0.051 C 
BRANCH 108 109
HETATM  109  C   UNL     1      -3.316 -10.590   9.031  1.00  0.00     0.089 C 
HETATM  110  C   UNL     1      -1.952 -11.230   9.341  1.00  0.00     0.033 C 
BRANCH 109 111
HETATM  111  N   UNL     1      -3.783  -9.898  10.221  1.00  0.00    -0.334 N 
HETATM  112  C   UNL     1      -4.004  -8.523  10.426  1.00  0.00     0.082 A 
HETATM  113  C   UNL     1      -4.427  -8.396  11.682  1.00  0.00     0.150 A 
HETATM  114  N   UNL     1      -4.482  -9.659  12.315  1.00  0.00    -0.254 NA
HETATM  115  C   UNL     1      -4.100 -10.513  11.447  1.00  0.00     0.210 A 
ENDBRANCH 109 111
ENDBRANCH 108 109
ENDBRANCH 107 108
BRANCH 107 116
HETATM  116  N   UNL     1      -5.603 -10.133   7.151  1.00  0.00    -0.339 N 
HETATM  117  C   UNL     1      -6.373 -10.362   8.309  1.00  0.00     0.209 A 
HETATM  118  N   UNL     1      -7.400 -11.284   8.041  1.00  0.00    -0.254 NA
HETATM  119  C   UNL     1      -7.238 -11.603   6.675  1.00  0.00     0.142 A 
HETATM  120  C   UNL     1      -6.206 -10.940   6.150  1.00  0.00     0.026 A 
HETATM  121  C   UNL     1      -5.789 -11.062   4.712  1.00  0.00     0.070 C 
ENDBRANCH 107 116
ENDBRANCH 106 107
ENDBRANCH 100 106
ENDBRANCH  99 100
ENDBRANCH  98  99
BRANCH  98 122
HETATM  122  N   UNL     1      -8.235  -6.179   4.524  1.00  0.00    -0.339 N 
HETATM  123  C   UNL     1      -9.472  -5.461   4.579  1.00  0.00     0.026 A 
HETATM  124  C   UNL     1     -10.497  -6.306   4.698  1.00  0.00     0.142 A 
HETATM  125  C   UNL     1      -9.718  -4.003   4.470  1.00  0.00     0.070 C 
HETATM  126  N   UNL     1     -10.058  -7.638   4.667  1.00  0.00    -0.254 NA
HETATM  127  C   UNL     1      -8.669  -7.529   4.503  1.00  0.00     0.209 A 
ENDBRANCH  98 122
ENDBRANCH  97  98
ENDBRANCH  91  97
ENDBRANCH  90  91
ENDBRANCH  89  90
ENDBRANCH   4  89
BRANCH   5 128
HETATM  128  O   UNL     1      -3.361  -0.157   1.764  1.00  0.00    -0.348 OA
BRANCH 128 129
HETATM  129  C   UNL     1      -2.282   0.020   0.821  1.00  0.00     0.187 C 
HETATM  130  C   UNL     1      -1.437   1.297   1.094  1.00  0.00     0.180 C 
HETATM  131  O   UNL     1      -0.555   1.540   0.001  1.00  0.00    -0.348 OA
HETATM  132  C   UNL     1      -2.326   2.535   1.273  1.00  0.00     0.203 C 
HETATM  133  C   UNL     1       0.374   0.484  -0.215  1.00  0.00     0.292 C 
HETATM  134  O   UNL     1       1.413   0.539   0.763  1.00  0.00    -0.348 OA
HETATM  135  C   UNL     1      -0.308  -0.910  -0.329  1.00  0.00     0.204 C 
HETATM  136  C   UNL     1       2.657   0.981   0.206  1.00  0.00     0.187 C 
HETATM  137  C   UNL     1       3.353   2.044   1.127  1.00  0.00     0.176 C 
HETATM  138  C   UNL     1       3.629  -0.196   0.016  1.00  0.00     0.180 C 
HETATM  139  O   UNL     1       4.759   2.215   0.879  1.00  0.00    -0.378 OA
HETATM  140  C   UNL     1       2.624   3.404   1.058  1.00  0.00     0.203 C 
HETATM  141  C   UNL     1       5.131   1.845  -0.431  1.00  0.00     0.202 C 
HETATM  142  C   UNL     1       4.933   0.325  -0.670  1.00  0.00     0.173 C 
HETATM  143  O   UNL     1       3.299   4.452   1.733  1.00  0.00    -0.379 OA
HETATM  144  C   UNL     1       3.489   4.175   3.104  1.00  0.00     0.280 C 
HETATM  145  C   UNL     1       3.669   5.468   3.838  1.00  0.00     0.308 C 
HETATM  146  O   UNL     1       4.552   6.242   3.505  1.00  0.00    -0.261 OA
HETATM  147  O   UNL     1       2.871   5.777   4.877  1.00  0.00    -0.158 OA
HETATM  148 Na   UNL     1       1.508   4.453   5.545  1.00  0.00    -0.020 Na
HETATM  149 Na   UNL     1      -1.119   4.427   6.012  1.00  0.00     0.080 Na
HETATM  150  O   UNL     1      -0.582   5.624   4.480  1.00  0.00    -0.180 OA
HETATM  151  C   UNL     1      -0.780   5.229   3.208  1.00  0.00     0.302 C 
HETATM  152  C   UNL     1      -1.421   3.901   2.937  1.00  0.00     0.280 C 
HETATM  153  O   UNL     1      -0.443   5.962   2.291  1.00  0.00    -0.261 OA
HETATM  154  O   UNL     1      -1.547   3.689   1.541  1.00  0.00    -0.379 OA
HETATM  155  C   UNL     1      -1.322  -1.179   0.804  1.00  0.00     0.183 C 
BRANCH 142 156
HETATM  156  O   UNL     1       6.103  -0.463  -0.271  1.00  0.00    -0.391 OA
HETATM  157  H   UNL     1       6.226  -0.397   0.689  1.00  0.00     0.210 HD
ENDBRANCH 142 156
BRANCH 138 158
HETATM  158  O   UNL     1       3.868  -0.836   1.251  1.00  0.00    -0.390 OA
HETATM  159  H   UNL     1       4.428  -0.252   1.822  1.00  0.00     0.210 HD
ENDBRANCH 138 158
BRANCH 135 160
HETATM  160  O   UNL     1       0.681  -1.980  -0.461  1.00  0.00    -0.388 OA
HETATM  161  H   UNL     1       1.216  -2.027   0.347  1.00  0.00     0.210 HD
ENDBRANCH 135 160
BRANCH 155 162
HETATM  162  O   UNL     1      -0.664  -1.323   2.037  1.00  0.00    -0.390 OA
HETATM  163  H   UNL     1      -1.307  -1.760   2.653  1.00  0.00     0.210 HD
ENDBRANCH 155 162
ENDBRANCH 128 129
ENDBRANCH   5 128
TORSDOF 61
