REMARK WARNING: 32 MAX_TORS EXCEEDED!!!
REMARK  40 active torsions:
REMARK  status: ('A' for Active; 'I' for Inactive)
REMARK    1  A    between atoms: C_1  and  O_44 
REMARK    2  A    between atoms: C_2  and  C_6 
REMARK    3  A    between atoms: C_3  and  O_10 
REMARK    4  A    between atoms: C_4  and  N_12 
REMARK    5  A    between atoms: C_5  and  O_14 
REMARK    6  A    between atoms: C_6  and  O_7 
REMARK    7  A    between atoms: O_14  and  C_27 
REMARK    8  A    between atoms: O_16  and  C_21 
REMARK    9  A    between atoms: C_18  and  C_33 
REMARK   10  A    between atoms: O_20  and  C_33 
REMARK   11  A    between atoms: O_22  and  C_30 
REMARK   12  A    between atoms: O_22  and  C_70 
REMARK   13  A    between atoms: O_23  and  C_24 
REMARK   14  A    between atoms: C_24  and  C_28 
REMARK       I    between atoms: N_29  and  C_32 
REMARK   15  A    between atoms: N_29  and  C_35 
REMARK   16  A    between atoms: C_31  and  C_32 
REMARK   17  A    between atoms: O_38  and  C_43 
REMARK   18  A    between atoms: C_40  and  C_55 
REMARK   19  A    between atoms: O_42  and  C_55 
REMARK   20  A    between atoms: O_44  and  C_52 
REMARK   21  A    between atoms: O_45  and  C_46 
REMARK   22  A    between atoms: C_46  and  C_50 
REMARK   23  A    between atoms: C_49  and  O_87 
REMARK       I    between atoms: N_51  and  C_54 
REMARK   24  A    between atoms: N_51  and  C_57 
REMARK   25  A    between atoms: C_53  and  C_54 
REMARK   26  A    between atoms: O_60  and  C_65 
REMARK   27  A    between atoms: C_62  and  C_76 
REMARK   28  A    between atoms: O_64  and  C_76 
REMARK   29  A    between atoms: O_66  and  C_67 
REMARK   30  A    between atoms: C_67  and  C_71 
REMARK       I    between atoms: N_72  and  C_75 
REMARK   31  A    between atoms: N_72  and  C_78 
REMARK   32  A    between atoms: C_74  and  C_75 
REMARK   33  A    between atoms: O_81  and  C_86 
REMARK   34  A    between atoms: C_83  and  C_98 
REMARK   35  A    between atoms: O_85  and  C_98 
REMARK   36  A    between atoms: O_87  and  C_95 
REMARK   37  A    between atoms: O_88  and  C_89 
REMARK   38  A    between atoms: C_89  and  C_93 
REMARK       I    between atoms: N_94  and  C_97 
REMARK   39  A    between atoms: N_94  and  C_100 
REMARK   40  A    between atoms: C_96  and  C_97 
ROOT
HETATM    1  C   UNL     1      -7.449   1.000  -0.248  1.00  0.00     0.186 C 
HETATM    2  C   UNL     1      -6.588   2.006   0.554  1.00  0.00     0.179 C 
HETATM    3  C   UNL     1      -6.616  -0.250  -0.600  1.00  0.00     0.187 C 
HETATM    4  C   UNL     1      -5.309   0.206  -1.288  1.00  0.00     0.303 C 
HETATM    5  C   UNL     1      -4.484   1.118  -0.313  1.00  0.00     0.296 C 
HETATM    6  O   UNL     1      -5.253   1.522   0.826  1.00  0.00    -0.349 OA
ENDROOT
BRANCH   1   7
HETATM    7  O   UNL     1      -8.604   0.619   0.518  1.00  0.00    -0.348 OA
BRANCH   7   8
HETATM    8  C   UNL     1      -9.873   0.879  -0.096  1.00  0.00     0.286 C 
HETATM    9  O   UNL     1     -10.558   1.816   0.744  1.00  0.00    -0.349 OA
HETATM   10  C   UNL     1     -11.856   2.227   0.272  1.00  0.00     0.180 C 
HETATM   11  C   UNL     1     -12.789   1.044  -0.071  1.00  0.00     0.186 C 
HETATM   12  C   UNL     1     -12.123  -0.290   0.307  1.00  0.00     0.177 C 
HETATM   13  C   UNL     1     -10.708  -0.426  -0.275  1.00  0.00     0.171 C 
BRANCH  10  14
HETATM   14  C   UNL     1     -11.717   3.206  -0.904  1.00  0.00     0.198 C 
BRANCH  14  15
HETATM   15  O   UNL     1     -10.751   4.214  -0.622  1.00  0.00    -0.398 OA
HETATM   16  H   UNL     1     -10.394   4.048   0.272  1.00  0.00     0.209 HD
ENDBRANCH  14  15
ENDBRANCH  10  14
BRANCH  11  17
HETATM   17  O   UNL     1     -13.986   1.185   0.710  1.00  0.00    -0.348 OA
BRANCH  17  18
HETATM   18  C   UNL     1     -15.212   1.372  -0.003  1.00  0.00     0.286 C 
HETATM   19  O   UNL     1     -16.045   2.182   0.819  1.00  0.00    -0.352 OA
HETATM   20  C   UNL     1     -17.314   2.532   0.237  1.00  0.00     0.150 C 
HETATM   21  C   UNL     1     -17.883   1.465  -0.704  1.00  0.00     0.068 C 
HETATM   22  C   UNL     1     -17.420   0.079  -0.292  1.00  0.00     0.148 C 
HETATM   23  C   UNL     1     -15.879   0.002  -0.335  1.00  0.00     0.168 C 
BRANCH  20  24
HETATM   24  C   UNL     1     -17.183   3.891  -0.463  1.00  0.00     0.196 C 
BRANCH  24  25
HETATM   25  O   UNL     1     -16.671   4.864   0.443  1.00  0.00    -0.398 OA
HETATM   26  H   UNL     1     -16.086   4.383   1.061  1.00  0.00     0.209 HD
ENDBRANCH  24  25
ENDBRANCH  20  24
BRANCH  22  27
HETATM   27  O   UNL     1     -17.926  -0.194   1.018  1.00  0.00    -0.393 OA
HETATM   28  H   UNL     1     -17.443  -0.981   1.334  1.00  0.00     0.210 HD
ENDBRANCH  22  27
BRANCH  23  29
HETATM   29  N   UNL     1     -15.369  -1.108   0.481  1.00  0.00    -0.346 N 
HETATM   30  C   UNL     1     -15.348  -2.380  -0.035  1.00  0.00     0.241 C 
HETATM   31  O   UNL     1     -15.972  -2.710  -1.035  1.00  0.00    -0.269 OA
HETATM   32  H   UNL     1     -14.748  -0.852   1.247  1.00  0.00     0.163 HD
BRANCH  30  33
HETATM   33  C   UNL     1     -14.396  -3.277   0.650  1.00  0.00     0.080 C 
HETATM   34  C   UNL     1     -13.989  -4.377   0.003  1.00  0.00     0.086 C 
BRANCH  34  35
HETATM   35  C   UNL     1     -12.931  -5.203   0.585  1.00  0.00     0.165 C 
HETATM   36  O   UNL     1     -12.340  -5.011   1.629  1.00  0.00    -0.647 OA
BRANCH  35  37
HETATM   37  O   UNL     1     -12.651  -6.234  -0.226  1.00  0.00    -0.773 OA
HETATM   38  H   UNL     1     -11.923  -6.709   0.226  1.00  0.00     0.167 HD
ENDBRANCH  35  37
ENDBRANCH  34  35
ENDBRANCH  30  33
ENDBRANCH  23  29
ENDBRANCH  17  18
ENDBRANCH  11  17
BRANCH  12  39
HETATM   39  O   UNL     1     -12.106  -0.475   1.736  1.00  0.00    -0.391 OA
HETATM   40  H   UNL     1     -11.664   0.304   2.129  1.00  0.00     0.210 HD
ENDBRANCH  12  39
BRANCH  13  41
HETATM   41  N   UNL     1     -10.074  -1.623   0.276  1.00  0.00    -0.346 N 
HETATM   42  C   UNL     1      -9.336  -2.478  -0.493  1.00  0.00     0.241 C 
HETATM   43  O   UNL     1      -9.252  -2.390  -1.712  1.00  0.00    -0.269 OA
HETATM   44  H   UNL     1     -10.029  -1.685   1.287  1.00  0.00     0.163 HD
BRANCH  42  45
HETATM   45  C   UNL     1      -8.638  -3.511   0.298  1.00  0.00     0.080 C 
HETATM   46  C   UNL     1      -7.712  -4.275  -0.294  1.00  0.00     0.086 C 
BRANCH  46  47
HETATM   47  C   UNL     1      -6.993  -5.264   0.508  1.00  0.00     0.165 C 
HETATM   48  O   UNL     1      -7.157  -5.520   1.686  1.00  0.00    -0.647 OA
BRANCH  47  49
HETATM   49  O   UNL     1      -6.087  -5.907  -0.244  1.00  0.00    -0.773 OA
HETATM   50  H   UNL     1      -5.654  -6.523   0.382  1.00  0.00     0.167 HD
ENDBRANCH  47  49
ENDBRANCH  46  47
ENDBRANCH  42  45
ENDBRANCH  13  41
ENDBRANCH   7   8
ENDBRANCH   1   7
BRANCH   2  51
HETATM   51  C   UNL     1      -6.518   3.373  -0.145  1.00  0.00     0.198 C 
BRANCH  51  52
HETATM   52  O   UNL     1      -5.680   4.270   0.577  1.00  0.00    -0.398 OA
HETATM   53  H   UNL     1      -5.109   3.741   1.167  1.00  0.00     0.209 HD
ENDBRANCH  51  52
ENDBRANCH   2  51
BRANCH   3  54
HETATM   54  O   UNL     1      -6.333  -1.057   0.554  1.00  0.00    -0.391 OA
HETATM   55  H   UNL     1      -5.922  -0.481   1.228  1.00  0.00     0.210 HD
ENDBRANCH   3  54
BRANCH   4  56
HETATM   56  N   UNL     1      -4.594  -0.953  -1.850  1.00  0.00     0.090 N 
HETATM   57  H   UNL     1      -3.778  -0.670  -2.380  1.00  0.00     0.313 HD
HETATM   58  H   UNL     1      -4.266  -1.528  -1.067  1.00  0.00     0.313 HD
ENDBRANCH   4  56
BRANCH   5  59
HETATM   59  O   UNL     1      -3.330   0.418   0.191  1.00  0.00    -0.348 OA
BRANCH  59  60
HETATM   60  C   UNL     1      -2.090   0.741  -0.467  1.00  0.00     0.186 C 
HETATM   61  C   UNL     1      -1.360   1.936   0.201  1.00  0.00     0.179 C 
HETATM   62  O   UNL     1       0.013   1.684   0.567  1.00  0.00    -0.349 OA
HETATM   63  C   UNL     1       0.848   1.031  -0.396  1.00  0.00     0.281 C 
HETATM   64  C   UNL     1       0.132  -0.142  -1.127  1.00  0.00     0.149 C 
HETATM   65  C   UNL     1      -1.201  -0.517  -0.454  1.00  0.00     0.172 C 
BRANCH  61  66
HETATM   66  C   UNL     1      -1.400   3.189  -0.688  1.00  0.00     0.198 C 
BRANCH  66  67
HETATM   67  O   UNL     1      -0.780   4.291  -0.036  1.00  0.00    -0.398 OA
HETATM   68  H   UNL     1      -0.116   3.935   0.587  1.00  0.00     0.209 HD
ENDBRANCH  66  67
ENDBRANCH  61  66
BRANCH  63  69
HETATM   69  O   UNL     1       2.038   0.603   0.264  1.00  0.00    -0.349 OA
BRANCH  69  70
HETATM   70  C   UNL     1       3.267   1.129  -0.257  1.00  0.00     0.186 C 
HETATM   71  C   UNL     1       3.613   2.511   0.351  1.00  0.00     0.176 C 
HETATM   72  O   UNL     1       5.040   2.675   0.574  1.00  0.00    -0.379 OA
HETATM   73  C   UNL     1       5.851   2.151  -0.485  1.00  0.00     0.196 C 
HETATM   74  C   UNL     1       5.716   0.621  -0.592  1.00  0.00     0.139 C 
HETATM   75  C   UNL     1       4.413   0.143   0.075  1.00  0.00     0.174 C 
BRANCH  71  76
HETATM   76  C   UNL     1       3.124   3.695  -0.494  1.00  0.00     0.198 C 
BRANCH  76  77
HETATM   77  O   UNL     1       3.547   4.923   0.098  1.00  0.00    -0.398 OA
HETATM   78  H   UNL     1       4.437   4.760   0.468  1.00  0.00     0.209 HD
ENDBRANCH  76  77
ENDBRANCH  71  76
BRANCH  74  79
HETATM   79  N   UNL     1       6.877  -0.051  -0.006  1.00  0.00    -0.348 N 
HETATM   80  C   UNL     1       7.692  -0.874  -0.734  1.00  0.00     0.241 C 
HETATM   81  O   UNL     1       7.522  -1.140  -1.917  1.00  0.00    -0.269 OA
HETATM   82  H   UNL     1       6.965  -0.008   1.003  1.00  0.00     0.163 HD
BRANCH  80  83
HETATM   83  C   UNL     1       8.840  -1.391   0.042  1.00  0.00     0.080 C 
HETATM   84  C   UNL     1       9.691  -2.244  -0.544  1.00  0.00     0.086 C 
BRANCH  84  85
HETATM   85  C   UNL     1      10.886  -2.671   0.185  1.00  0.00     0.165 C 
HETATM   86  O   UNL     1      11.238  -2.312   1.292  1.00  0.00    -0.647 OA
BRANCH  85  87
HETATM   87  O   UNL     1      11.599  -3.535  -0.553  1.00  0.00    -0.773 OA
HETATM   88  H   UNL     1      12.378  -3.743   0.004  1.00  0.00     0.167 HD
ENDBRANCH  85  87
ENDBRANCH  84  85
ENDBRANCH  80  83
ENDBRANCH  74  79
BRANCH  75  89
HETATM   89  O   UNL     1       4.611   0.019   1.496  1.00  0.00    -0.391 OA
HETATM   90  H   UNL     1       4.746   0.912   1.864  1.00  0.00     0.210 HD
ENDBRANCH  75  89
ENDBRANCH  69  70
ENDBRANCH  63  69
BRANCH  64  91
HETATM   91  N   UNL     1       0.947  -1.272  -1.607  1.00  0.00    -0.247 NA
HETATM   92  C   UNL     1       0.993  -2.466  -0.938  1.00  0.00     0.221 C 
HETATM   93  O   UNL     1       0.435  -3.443  -1.431  1.00  0.00    -0.275 OA
HETATM   94  H   UNL     1       0.627  -1.532  -2.533  1.00  0.00     0.131 HD
BRANCH  92  95
HETATM   95  C   UNL     1       1.968  -2.578   0.156  1.00  0.00     0.074 C 
HETATM   96  C   UNL     1       2.820  -3.609   0.048  1.00  0.00     0.086 C 
BRANCH  96  97
HETATM   97  C   UNL     1       3.915  -3.808   0.995  1.00  0.00     0.165 C 
HETATM   98  O   UNL     1       4.072  -3.287   2.083  1.00  0.00    -0.647 OA
BRANCH  97  99
HETATM   99  O   UNL     1       4.802  -4.676   0.482  1.00  0.00    -0.773 OA
HETATM  100  H   UNL     1       5.504  -4.727   1.163  1.00  0.00     0.167 HD
ENDBRANCH  97  99
ENDBRANCH  96  97
ENDBRANCH  92  95
ENDBRANCH  64  91
BRANCH  65 101
HETATM  101  O   UNL     1      -1.008  -1.006   0.871  1.00  0.00    -0.391 OA
HETATM  102  H   UNL     1      -1.881  -0.994   1.310  1.00  0.00     0.210 HD
ENDBRANCH  65 101
ENDBRANCH  59  60
ENDBRANCH   5  59
TORSDOF 40
