REMARK WARNING: 32 MAX_TORS EXCEEDED!!!
REMARK  44 active torsions:
REMARK  status: ('A' for Active; 'I' for Inactive)
REMARK    1  A    between atoms: C_1  and  O_44 
REMARK    2  A    between atoms: C_2  and  C_6 
REMARK    3  A    between atoms: C_3  and  O_10 
REMARK    4  A    between atoms: C_4  and  N_12 
REMARK    5  A    between atoms: C_5  and  O_14 
REMARK    6  A    between atoms: C_6  and  O_7 
REMARK    7  A    between atoms: O_14  and  C_27 
REMARK    8  A    between atoms: O_16  and  C_21 
REMARK    9  A    between atoms: C_18  and  C_33 
REMARK   10  A    between atoms: O_20  and  C_33 
REMARK   11  A    between atoms: O_22  and  C_30 
REMARK   12  A    between atoms: O_22  and  C_70 
REMARK   13  A    between atoms: O_23  and  C_24 
REMARK   14  A    between atoms: C_24  and  C_28 
REMARK   15  A    between atoms: C_28  and  C_31 
REMARK       I    between atoms: N_29  and  C_32 
REMARK   16  A    between atoms: N_29  and  C_35 
REMARK   17  A    between atoms: C_31  and  C_32 
REMARK   18  A    between atoms: O_38  and  C_43 
REMARK   19  A    between atoms: C_40  and  C_55 
REMARK   20  A    between atoms: O_42  and  C_55 
REMARK   21  A    between atoms: O_44  and  C_52 
REMARK   22  A    between atoms: O_45  and  C_46 
REMARK   23  A    between atoms: C_46  and  C_50 
REMARK   24  A    between atoms: C_49  and  O_87 
REMARK   25  A    between atoms: C_50  and  C_53 
REMARK       I    between atoms: N_51  and  C_54 
REMARK   26  A    between atoms: N_51  and  C_57 
REMARK   27  A    between atoms: C_53  and  C_54 
REMARK   28  A    between atoms: O_60  and  C_65 
REMARK   29  A    between atoms: C_62  and  C_76 
REMARK   30  A    between atoms: O_64  and  C_76 
REMARK   31  A    between atoms: O_66  and  C_67 
REMARK   32  A    between atoms: C_67  and  C_71 
REMARK   33  A    between atoms: C_71  and  C_74 
REMARK       I    between atoms: N_72  and  C_75 
REMARK   34  A    between atoms: N_72  and  C_78 
REMARK   35  A    between atoms: C_74  and  C_75 
REMARK   36  A    between atoms: O_81  and  C_86 
REMARK   37  A    between atoms: C_83  and  C_98 
REMARK   38  A    between atoms: O_85  and  C_98 
REMARK   39  A    between atoms: O_87  and  C_95 
REMARK   40  A    between atoms: O_88  and  C_89 
REMARK   41  A    between atoms: C_89  and  C_93 
REMARK   42  A    between atoms: C_93  and  C_96 
REMARK       I    between atoms: N_94  and  C_97 
REMARK   43  A    between atoms: N_94  and  C_100 
REMARK   44  A    between atoms: C_96  and  C_97 
ROOT
ATOM      1  C   UNL     1      -7.439   1.006  -0.279  1.00  0.00     0.186 C 
ATOM      2  C   UNL     1      -6.587   1.982   0.562  1.00  0.00     0.179 C 
ATOM      3  C   UNL     1      -6.612  -0.234  -0.669  1.00  0.00     0.187 C 
ATOM      4  C   UNL     1      -5.286   0.218  -1.315  1.00  0.00     0.303 C 
ATOM      5  C   UNL     1      -4.479   1.118  -0.313  1.00  0.00     0.296 C 
ATOM      6  O   UNL     1      -5.258   1.484   0.832  1.00  0.00    -0.349 OA
ENDROOT
BRANCH   1   7
ATOM      7  O   UNL     1      -8.589   0.585   0.472  1.00  0.00    -0.348 OA
BRANCH   7   8
ATOM      8  C   UNL     1      -9.858   0.870  -0.128  1.00  0.00     0.286 C 
ATOM      9  O   UNL     1     -10.509   1.827   0.714  1.00  0.00    -0.349 OA
ATOM     10  C   UNL     1     -11.799   2.266   0.250  1.00  0.00     0.180 C 
ATOM     11  C   UNL     1     -12.763   1.101  -0.072  1.00  0.00     0.186 C 
ATOM     12  C   UNL     1     -12.125  -0.243   0.313  1.00  0.00     0.177 C 
ATOM     13  C   UNL     1     -10.721  -0.420  -0.282  1.00  0.00     0.170 C 
BRANCH  10  14
ATOM     14  C   UNL     1     -11.649   3.230  -0.937  1.00  0.00     0.198 C 
BRANCH  14  15
ATOM     15  O   UNL     1     -10.627   4.193  -0.695  1.00  0.00    -0.398 OA
ATOM     16  H   UNL     1     -10.364   4.127   0.243  1.00  0.00     0.209 HD
ENDBRANCH  14  15
ENDBRANCH  10  14
BRANCH  11  17
ATOM     17  O   UNL     1     -13.948   1.280   0.718  1.00  0.00    -0.348 OA
BRANCH  17  18
ATOM     18  C   UNL     1     -15.183   1.423   0.013  1.00  0.00     0.286 C 
ATOM     19  O   UNL     1     -16.042   2.198   0.841  1.00  0.00    -0.352 OA
ATOM     20  C   UNL     1     -17.305   2.540   0.241  1.00  0.00     0.150 C 
ATOM     21  C   UNL     1     -17.834   1.483  -0.734  1.00  0.00     0.068 C 
ATOM     22  C   UNL     1     -17.358   0.096  -0.336  1.00  0.00     0.148 C 
ATOM     23  C   UNL     1     -15.814   0.039  -0.333  1.00  0.00     0.168 C 
BRANCH  20  24
ATOM     24  C   UNL     1     -17.179   3.915  -0.429  1.00  0.00     0.196 C 
BRANCH  24  25
ATOM     25  O   UNL     1     -16.684   4.873   0.504  1.00  0.00    -0.398 OA
ATOM     26  H   UNL     1     -16.100   4.382   1.116  1.00  0.00     0.209 HD
ENDBRANCH  24  25
ENDBRANCH  20  24
BRANCH  22  27
ATOM     27  O   UNL     1     -17.902  -0.210   0.952  1.00  0.00    -0.393 OA
ATOM     28  H   UNL     1     -17.409  -0.989   1.273  1.00  0.00     0.210 HD
ENDBRANCH  22  27
BRANCH  23  29
ATOM     29  N   UNL     1     -15.321  -1.067   0.501  1.00  0.00    -0.349 N 
ATOM     30  C   UNL     1     -15.282  -2.347  -0.003  1.00  0.00     0.218 C 
ATOM     31  O   UNL     1     -15.845  -2.651  -1.051  1.00  0.00    -0.274 OA
ATOM     32  H   UNL     1     -14.752  -0.817   1.310  1.00  0.00     0.163 HD
BRANCH  30  33
ATOM     33  C   UNL     1     -14.492  -3.332   0.829  1.00  0.00     0.113 C 
BRANCH  33  34
ATOM     34  C   UNL     1     -14.030  -4.501  -0.038  1.00  0.00     0.119 C 
BRANCH  34  35
ATOM     35  C   UNL     1     -12.914  -5.269   0.609  1.00  0.00     0.139 C 
ATOM     36  O   UNL     1     -12.333  -4.998   1.643  1.00  0.00    -0.650 OA
BRANCH  35  37
ATOM     37  O   UNL     1     -12.567  -6.353  -0.113  1.00  0.00    -0.776 OA
ATOM     38  H   UNL     1     -11.837  -6.763   0.396  1.00  0.00     0.167 HD
ENDBRANCH  35  37
ENDBRANCH  34  35
ENDBRANCH  33  34
ENDBRANCH  30  33
ENDBRANCH  23  29
ENDBRANCH  17  18
ENDBRANCH  11  17
BRANCH  12  39
ATOM     39  O   UNL     1     -12.094  -0.410   1.743  1.00  0.00    -0.391 OA
ATOM     40  H   UNL     1     -11.631   0.362   2.121  1.00  0.00     0.210 HD
ENDBRANCH  12  39
BRANCH  13  41
ATOM     41  N   UNL     1     -10.111  -1.623   0.281  1.00  0.00    -0.349 N 
ATOM     42  C   UNL     1      -9.324  -2.466  -0.462  1.00  0.00     0.218 C 
ATOM     43  O   UNL     1      -9.214  -2.360  -1.680  1.00  0.00    -0.274 OA
ATOM     44  H   UNL     1     -10.075  -1.684   1.295  1.00  0.00     0.163 HD
BRANCH  42  45
ATOM     45  C   UNL     1      -8.670  -3.548   0.363  1.00  0.00     0.113 C 
BRANCH  45  46
ATOM     46  C   UNL     1      -7.627  -4.313  -0.437  1.00  0.00     0.119 C 
BRANCH  46  47
ATOM     47  C   UNL     1      -6.932  -5.324   0.427  1.00  0.00     0.139 C 
ATOM     48  O   UNL     1      -7.195  -5.617   1.581  1.00  0.00    -0.650 OA
BRANCH  47  49
ATOM     49  O   UNL     1      -5.936  -5.952  -0.228  1.00  0.00    -0.776 OA
ATOM     50  H   UNL     1      -5.567  -6.573   0.434  1.00  0.00     0.167 HD
ENDBRANCH  47  49
ENDBRANCH  46  47
ENDBRANCH  45  46
ENDBRANCH  42  45
ENDBRANCH  13  41
ENDBRANCH   7   8
ENDBRANCH   1   7
BRANCH   2  51
ATOM     51  C   UNL     1      -6.509   3.372  -0.092  1.00  0.00     0.198 C 
BRANCH  51  52
ATOM     52  O   UNL     1      -5.683   4.246   0.670  1.00  0.00    -0.398 OA
ATOM     53  H   UNL     1      -5.103   3.698   1.233  1.00  0.00     0.209 HD
ENDBRANCH  51  52
ENDBRANCH   2  51
BRANCH   3  54
ATOM     54  O   UNL     1      -6.351  -1.091   0.457  1.00  0.00    -0.391 OA
ATOM     55  H   UNL     1      -5.983  -0.535   1.171  1.00  0.00     0.210 HD
ENDBRANCH   3  54
BRANCH   4  56
ATOM     56  N   UNL     1      -4.583  -0.961  -1.853  1.00  0.00     0.090 N 
ATOM     57  H   UNL     1      -3.636  -0.736  -2.130  1.00  0.00     0.313 HD
ATOM     58  H   UNL     1      -4.507  -1.646  -1.093  1.00  0.00     0.313 HD
ENDBRANCH   4  56
BRANCH   5  59
ATOM     59  O   UNL     1      -3.315   0.427   0.179  1.00  0.00    -0.348 OA
BRANCH  59  60
ATOM     60  C   UNL     1      -2.083   0.758  -0.489  1.00  0.00     0.186 C 
ATOM     61  C   UNL     1      -1.344   1.937   0.196  1.00  0.00     0.179 C 
ATOM     62  O   UNL     1       0.032   1.672   0.540  1.00  0.00    -0.349 OA
ATOM     63  C   UNL     1       0.849   1.034  -0.446  1.00  0.00     0.281 C 
ATOM     64  C   UNL     1       0.131  -0.138  -1.173  1.00  0.00     0.149 C 
ATOM     65  C   UNL     1      -1.204  -0.507  -0.504  1.00  0.00     0.172 C 
BRANCH  61  66
ATOM     66  C   UNL     1      -1.389   3.210  -0.665  1.00  0.00     0.198 C 
BRANCH  66  67
ATOM     67  O   UNL     1      -0.778   4.300   0.016  1.00  0.00    -0.398 OA
ATOM     68  H   UNL     1      -0.104   3.936   0.622  1.00  0.00     0.209 HD
ENDBRANCH  66  67
ENDBRANCH  61  66
BRANCH  63  69
ATOM     69  O   UNL     1       2.050   0.607   0.188  1.00  0.00    -0.349 OA
BRANCH  69  70
ATOM     70  C   UNL     1       3.266   1.167  -0.321  1.00  0.00     0.186 C 
ATOM     71  C   UNL     1       3.582   2.538   0.325  1.00  0.00     0.176 C 
ATOM     72  O   UNL     1       5.001   2.720   0.568  1.00  0.00    -0.379 OA
ATOM     73  C   UNL     1       5.833   2.237  -0.493  1.00  0.00     0.196 C 
ATOM     74  C   UNL     1       5.732   0.708  -0.637  1.00  0.00     0.139 C 
ATOM     75  C   UNL     1       4.422   0.185  -0.016  1.00  0.00     0.174 C 
BRANCH  71  76
ATOM     76  C   UNL     1       3.077   3.730  -0.501  1.00  0.00     0.198 C 
BRANCH  76  77
ATOM     77  O   UNL     1       3.464   4.953   0.122  1.00  0.00    -0.398 OA
ATOM     78  H   UNL     1       4.356   4.805   0.494  1.00  0.00     0.209 HD
ENDBRANCH  76  77
ENDBRANCH  71  76
BRANCH  74  79
ATOM     79  N   UNL     1       6.879   0.043  -0.020  1.00  0.00    -0.352 N 
ATOM     80  C   UNL     1       7.734  -0.769  -0.728  1.00  0.00     0.218 C 
ATOM     81  O   UNL     1       7.647  -0.942  -1.938  1.00  0.00    -0.274 OA
ATOM     82  H   UNL     1       6.858  -0.035   0.993  1.00  0.00     0.163 HD
BRANCH  80  83
ATOM     83  C   UNL     1       8.812  -1.387   0.134  1.00  0.00     0.113 C 
BRANCH  83  84
ATOM     84  C   UNL     1       9.725  -2.302  -0.671  1.00  0.00     0.119 C 
BRANCH  84  85
ATOM     85  C   UNL     1      10.902  -2.741   0.148  1.00  0.00     0.139 C 
ATOM     86  O   UNL     1      11.169  -2.412   1.292  1.00  0.00    -0.650 OA
BRANCH  85  87
ATOM     87  O   UNL     1      11.704  -3.585  -0.528  1.00  0.00    -0.776 OA
ATOM     88  H   UNL     1      12.428  -3.789   0.100  1.00  0.00     0.167 HD
ENDBRANCH  85  87
ENDBRANCH  84  85
ENDBRANCH  83  84
ENDBRANCH  80  83
ENDBRANCH  74  79
BRANCH  75  89
ATOM     89  O   UNL     1       4.607  -0.005   1.402  1.00  0.00    -0.391 OA
ATOM     90  H   UNL     1       4.664   0.874   1.820  1.00  0.00     0.210 HD
ENDBRANCH  75  89
ENDBRANCH  69  70
ENDBRANCH  63  69
BRANCH  64  91
ATOM     91  N   UNL     1       0.931  -1.271  -1.670  1.00  0.00    -0.251 NA
ATOM     92  C   UNL     1       0.980  -2.481  -1.031  1.00  0.00     0.198 C 
ATOM     93  O   UNL     1       0.493  -3.445  -1.625  1.00  0.00    -0.280 OA
ATOM     94  H   UNL     1       0.641  -1.505  -2.614  1.00  0.00     0.131 HD
BRANCH  92  95
ATOM     95  C   UNL     1       1.747  -2.635   0.257  1.00  0.00     0.107 C 
BRANCH  95  96
ATOM     96  C   UNL     1       2.777  -3.742   0.032  1.00  0.00     0.118 C 
BRANCH  96  97
ATOM     97  C   UNL     1       3.812  -3.817   1.111  1.00  0.00     0.139 C 
ATOM     98  O   UNL     1       3.721  -3.424   2.262  1.00  0.00    -0.650 OA
BRANCH  97  99
ATOM     99  O   UNL     1       4.917  -4.474   0.699  1.00  0.00    -0.776 OA
ATOM    100  H   UNL     1       5.483  -4.509   1.497  1.00  0.00     0.167 HD
ENDBRANCH  97  99
ENDBRANCH  96  97
ENDBRANCH  95  96
ENDBRANCH  92  95
ENDBRANCH  64  91
BRANCH  65 101
ATOM    101  O   UNL     1      -1.020  -1.026   0.811  1.00  0.00    -0.391 OA
ATOM    102  H   UNL     1      -1.892  -0.995   1.252  1.00  0.00     0.210 HD
ENDBRANCH  65 101
ENDBRANCH  59  60
ENDBRANCH   5  59
TORSDOF 44
