REMARK WARNING: 32 MAX_TORS EXCEEDED!!!
REMARK  40 active torsions:
REMARK  status: ('A' for Active; 'I' for Inactive)
REMARK    1  A    between atoms: C_1  and  C_63 
REMARK    2  A    between atoms: C_2  and  O_66 
REMARK    3  A    between atoms: C_3  and  O_7 
REMARK    4  A    between atoms: C_4  and  O_71 
REMARK    5  A    between atoms: C_6  and  N_68 
REMARK    6  A    between atoms: O_7  and  C_8 
REMARK    7  A    between atoms: C_9  and  N_14 
REMARK    8  A    between atoms: C_10  and  O_30 
REMARK    9  A    between atoms: C_11  and  O_32 
REMARK   10  A    between atoms: C_12  and  C_60 
REMARK   11  A    between atoms: N_14  and  S_16 
REMARK   12  A    between atoms: S_16  and  C_19 
REMARK   13  A    between atoms: C_22  and  N_25 
REMARK       I    between atoms: N_25  and  C_26 
REMARK   14  A    between atoms: O_32  and  C_33 
REMARK   15  A    between atoms: C_35  and  C_39 
REMARK   16  A    between atoms: C_37  and  O_42 
REMARK   17  A    between atoms: C_38  and  N_44 
REMARK   18  A    between atoms: C_39  and  O_40 
REMARK   19  A    between atoms: N_44  and  S_46 
REMARK   20  A    between atoms: S_46  and  C_49 
REMARK   21  A    between atoms: C_52  and  N_55 
REMARK       I    between atoms: N_55  and  C_56 
REMARK   22  A    between atoms: C_60  and  O_61 
REMARK   23  A    between atoms: C_63  and  O_64 
REMARK   24  A    between atoms: O_71  and  C_72 
REMARK   25  A    between atoms: C_73  and  C_78 
REMARK   26  A    between atoms: C_75  and  O_81 
REMARK   27  A    between atoms: C_76  and  N_109 
REMARK   28  A    between atoms: C_77  and  O_125 
REMARK   29  A    between atoms: C_78  and  O_79 
REMARK   30  A    between atoms: O_81  and  C_82 
REMARK   31  A    between atoms: C_83  and  C_88 
REMARK   32  A    between atoms: C_86  and  N_91 
REMARK   33  A    between atoms: C_87  and  O_107 
REMARK   34  A    between atoms: C_88  and  O_89 
REMARK   35  A    between atoms: N_91  and  S_93 
REMARK   36  A    between atoms: S_93  and  C_96 
REMARK   37  A    between atoms: C_99  and  N_102 
REMARK       I    between atoms: N_102  and  C_103 
REMARK   38  A    between atoms: N_109  and  S_111 
REMARK   39  A    between atoms: S_111  and  C_114 
REMARK   40  A    between atoms: C_117  and  N_120 
REMARK       I    between atoms: N_120  and  C_121 
ROOT
HETATM    1  C   UN1     1      24.679  67.269  26.013  1.00  0.00     0.177 C 
HETATM    2  C   UN1     1      25.631  69.573  25.512  1.00  0.00     0.176 C 
HETATM    3  C   UN1     1      24.545  68.791  26.276  1.00  0.00     0.176 C 
HETATM    4  C   UN1     1      27.089  67.636  26.378  1.00  0.00     0.270 C 
HETATM    5  O   UN1     1      26.036  66.861  25.794  1.00  0.00    -0.327 OA
HETATM    6  C   UN1     1      27.014  69.140  26.036  1.00  0.00     0.296 C 
ENDROOT
BRANCH   1   7
HETATM    7  C   UN1     1      24.007  66.455  27.129  1.00  0.00     0.170 C 
BRANCH   7   8
HETATM    8  O   UN1     1      24.837  65.377  27.505  1.00  0.00    -0.380 OA
HETATM    9  H   UN1     1      25.420  65.673  28.208  1.00  0.00     0.211 HD
ENDBRANCH   7   8
ENDBRANCH   1   7
BRANCH   3  10
HETATM   10  O   UN1     1      23.241  69.344  26.078  1.00  0.00    -0.327 OA
BRANCH  10  11
HETATM   11  C   UN1     1      22.201  68.459  25.684  1.00  0.00     0.254 C 
HETATM   12  C   UN1     1      21.595  68.906  24.348  1.00  0.00     0.154 C 
HETATM   13  C   UN1     1      20.347  68.048  24.078  1.00  0.00     0.161 C 
HETATM   14  C   UN1     1      19.393  68.155  25.291  1.00  0.00     0.176 C 
HETATM   15  C   UN1     1      20.115  67.813  26.616  1.00  0.00     0.177 C 
HETATM   16  O   UN1     1      21.276  68.623  26.745  1.00  0.00    -0.327 OA
BRANCH  12  17
HETATM   17  N   UN1     1      22.602  68.765  23.278  1.00  0.00    -0.198 NA
HETATM   18  H   UN1     1      23.440  69.262  23.545  1.00  0.00     0.141 HD
BRANCH  17  19
HETATM   19  S   UN1     1      22.075  69.525  21.819  1.00  0.00     0.222 S 
HETATM   20  O   UN1     1      23.365  70.325  21.100  1.00  0.00    -0.210 OA
HETATM   21  O   UN1     1      20.806  70.594  22.079  1.00  0.00    -0.210 OA
BRANCH  19  22
HETATM   22  C   UN1     1      21.512  68.216  20.706  1.00  0.00     0.123 C 
HETATM   23  C   UN1     1      20.414  68.692  19.744  1.00  0.00     0.019 C 
HETATM   24  C   UN1     1      19.957  67.578  18.794  1.00  0.00     0.034 C 
HETATM   25  C   UN1     1      21.136  66.984  18.008  1.00  0.00     0.219 C 
HETATM   26  C   UN1     1      22.207  66.487  18.984  1.00  0.00     0.034 C 
HETATM   27  C   UN1     1      22.675  67.613  19.911  1.00  0.00     0.019 C 
BRANCH  25  28
HETATM   28  N   UN1     1      20.707  65.880  17.122  1.00  0.00     0.142 N 
HETATM   29  H   UN1     1      20.185  65.211  17.670  1.00  0.00     0.321 HD
HETATM   30  C   UN1     1      19.881  66.296  15.968  1.00  0.00     0.364 C 
HETATM   31  O   UN1     1      19.213  65.301  15.224  1.00  0.00    -0.188 OA
HETATM   32  C   UN1     1      20.623  67.231  15.005  1.00  0.00     0.072 C 
ENDBRANCH  25  28
ENDBRANCH  19  22
ENDBRANCH  17  19
ENDBRANCH  12  17
BRANCH  13  33
HETATM   33  O   UN1     1      20.782  66.726  23.821  1.00  0.00    -0.381 OA
HETATM   34  H   UN1     1      20.105  66.279  23.307  1.00  0.00     0.211 HD
ENDBRANCH  13  33
BRANCH  14  35
HETATM   35  O   UN1     1      18.149  67.479  25.074  1.00  0.00    -0.327 OA
BRANCH  35  36
HETATM   36  C   UN1     1      17.012  68.275  24.760  1.00  0.00     0.254 C 
HETATM   37  C   UN1     1      16.662  68.173  23.267  1.00  0.00     0.152 C 
HETATM   38  C   UN1     1      15.624  69.260  22.921  1.00  0.00     0.134 C 
HETATM   39  C   UN1     1      16.065  70.636  23.447  1.00  0.00     0.063 C 
HETATM   40  C   UN1     1      16.472  70.559  24.929  1.00  0.00     0.150 C 
HETATM   41  O   UN1     1      17.480  69.572  25.085  1.00  0.00    -0.330 OA
BRANCH  37  42
HETATM   42  N   UN1     1      16.151  66.819  22.974  1.00  0.00    -0.198 NA
HETATM   43  H   UN1     1      16.313  66.226  23.775  1.00  0.00     0.141 HD
BRANCH  42  44
HETATM   44  S   UN1     1      16.994  66.054  21.676  1.00  0.00     0.222 S 
HETATM   45  O   UN1     1      16.550  64.437  21.585  1.00  0.00    -0.210 OA
HETATM   46  O   UN1     1      18.662  66.191  21.816  1.00  0.00    -0.210 OA
BRANCH  44  47
HETATM   47  C   UN1     1      16.484  66.891  20.154  1.00  0.00     0.123 C 
HETATM   48  C   UN1     1      16.905  66.127  18.890  1.00  0.00     0.019 C 
HETATM   49  C   UN1     1      16.449  66.835  17.608  1.00  0.00     0.034 C 
HETATM   50  C   UN1     1      14.934  67.076  17.598  1.00  0.00     0.219 C 
HETATM   51  C   UN1     1      14.529  67.862  18.853  1.00  0.00     0.034 C 
HETATM   52  C   UN1     1      14.970  67.143  20.132  1.00  0.00     0.019 C 
BRANCH  50  53
HETATM   53  N   UN1     1      14.536  67.784  16.362  1.00  0.00     0.142 N 
HETATM   54  C   UN1     1      13.073  67.900  16.180  1.00  0.00     0.364 C 
HETATM   55  C   UN1     1      12.385  66.540  16.036  1.00  0.00     0.072 C 
HETATM   56  O   UN1     1      12.568  68.782  15.202  1.00  0.00    -0.188 OA
HETATM   57  H   UN1     1      14.937  68.711  16.377  1.00  0.00     0.321 HD
ENDBRANCH  50  53
ENDBRANCH  44  47
ENDBRANCH  42  44
ENDBRANCH  37  42
BRANCH  38  58
HETATM   58  O   UN1     1      14.366  68.912  23.464  1.00  0.00    -0.383 OA
HETATM   59  H   UN1     1      13.708  68.961  22.767  1.00  0.00     0.210 HD
ENDBRANCH  38  58
BRANCH  40  60
HETATM   60  C   UN1     1      17.006  71.911  25.415  1.00  0.00     0.167 C 
BRANCH  60  61
HETATM   61  O   UN1     1      18.323  71.763  25.903  1.00  0.00    -0.380 OA
HETATM   62  H   UN1     1      18.933  72.081  25.234  1.00  0.00     0.211 HD
ENDBRANCH  60  61
ENDBRANCH  40  60
ENDBRANCH  35  36
ENDBRANCH  14  35
BRANCH  15  63
HETATM   63  C   UN1     1      19.239  68.107  27.842  1.00  0.00     0.170 C 
BRANCH  63  64
HETATM   64  O   UN1     1      18.678  69.398  27.733  1.00  0.00    -0.380 OA
HETATM   65  H   UN1     1      17.865  69.421  28.243  1.00  0.00     0.211 HD
ENDBRANCH  63  64
ENDBRANCH  15  63
ENDBRANCH  10  11
ENDBRANCH   3  10
BRANCH   4  66
HETATM   66  O   UN1     1      26.897  67.417  27.775  1.00  0.00    -0.327 OA
BRANCH  66  67
HETATM   67  C   UN1     1      27.659  68.215  28.685  1.00  0.00     0.176 C 
HETATM   68  C   UN1     1      29.152  68.358  28.307  1.00  0.00     0.161 C 
HETATM   69  C   UN1     1      29.840  69.328  29.288  1.00  0.00     0.154 C 
HETATM   70  C   UN1     1      29.546  68.870  30.726  1.00  0.00     0.254 C 
HETATM   71  O   UN1     1      28.150  68.805  30.966  1.00  0.00    -0.327 OA
HETATM   72  C   UN1     1      27.490  67.831  30.172  1.00  0.00     0.177 C 
BRANCH  68  73
HETATM   73  O   UN1     1      29.857  67.131  28.352  1.00  0.00    -0.381 OA
HETATM   74  H   UN1     1      30.146  66.981  29.254  1.00  0.00     0.211 HD
ENDBRANCH  68  73
BRANCH  69  75
HETATM   75  N   UN1     1      31.299  69.361  29.072  1.00  0.00    -0.198 NA
HETATM   76  H   UN1     1      31.762  69.518  29.956  1.00  0.00     0.141 HD
BRANCH  75  77
HETATM   77  S   UN1     1      31.792  70.682  28.080  1.00  0.00     0.222 S 
HETATM   78  O   UN1     1      30.837  70.857  26.708  1.00  0.00    -0.210 OA
HETATM   79  O   UN1     1      31.767  72.095  28.989  1.00  0.00    -0.210 OA
BRANCH  77  80
HETATM   80  C   UN1     1      33.495  70.340  27.573  1.00  0.00     0.123 C 
HETATM   81  C   UN1     1      34.378  71.597  27.613  1.00  0.00     0.019 C 
HETATM   82  C   UN1     1      35.833  71.310  27.223  1.00  0.00     0.034 C 
HETATM   83  C   UN1     1      36.444  70.194  28.083  1.00  0.00     0.219 C 
HETATM   84  C   UN1     1      35.570  68.938  28.000  1.00  0.00     0.034 C 
HETATM   85  C   UN1     1      34.127  69.231  28.425  1.00  0.00     0.019 C 
BRANCH  83  86
HETATM   86  N   UN1     1      37.822  69.877  27.654  1.00  0.00     0.142 N 
HETATM   87  H   UN1     1      38.009  70.366  26.790  1.00  0.00     0.321 HD
HETATM   88  C   UN1     1      38.853  70.238  28.649  1.00  0.00     0.364 C 
HETATM   89  O   UN1     1      40.177  70.456  28.211  1.00  0.00    -0.188 OA
HETATM   90  C   UN1     1      38.871  69.260  29.829  1.00  0.00     0.072 C 
ENDBRANCH  83  86
ENDBRANCH  77  80
ENDBRANCH  75  77
ENDBRANCH  69  75
BRANCH  70  91
HETATM   91  O   UN1     1      29.938  69.864  31.666  1.00  0.00    -0.327 OA
BRANCH  91  92
HETATM   92  C   UN1     1      28.950  70.802  32.101  1.00  0.00     0.175 C 
HETATM   93  C   UN1     1      28.904  71.083  33.623  1.00  0.00     0.174 C 
HETATM   94  O   UN1     1      27.821  71.964  33.919  1.00  0.00    -0.350 OA
HETATM   95  C   UN1     1      27.860  73.205  33.227  1.00  0.00     0.162 C 
HETATM   96  C   UN1     1      27.794  72.982  31.707  1.00  0.00     0.127 C 
HETATM   97  C   UN1     1      28.988  72.110  31.284  1.00  0.00     0.158 C 
BRANCH  93  98
HETATM   98  C   UN1     1      28.657  69.798  34.425  1.00  0.00     0.170 C 
BRANCH  98  99
HETATM   99  O   UN1     1      27.740  68.968  33.744  1.00  0.00    -0.380 OA
HETATM  100  H   UN1     1      26.886  69.404  33.736  1.00  0.00     0.211 HD
ENDBRANCH  98  99
ENDBRANCH  93  98
BRANCH  96 101
HETATM  101  N   UN1     1      27.764  74.280  30.999  1.00  0.00    -0.201 NA
HETATM  102  H   UN1     1      27.231  74.937  31.551  1.00  0.00     0.140 HD
BRANCH 101 103
HETATM  103  S   UN1     1      26.914  74.161  29.497  1.00  0.00     0.222 S 
HETATM  104  O   UN1     1      27.925  73.564  28.294  1.00  0.00    -0.210 OA
HETATM  105  O   UN1     1      26.259  75.628  29.005  1.00  0.00    -0.210 OA
BRANCH 103 106
HETATM  106  C   UN1     1      25.551  72.990  29.706  1.00  0.00     0.123 C 
HETATM  107  C   UN1     1      25.749  71.712  28.881  1.00  0.00     0.019 C 
HETATM  108  C   UN1     1      24.600  70.724  29.102  1.00  0.00     0.034 C 
HETATM  109  C   UN1     1      23.239  71.347  28.754  1.00  0.00     0.219 C 
HETATM  110  C   UN1     1      23.032  72.623  29.579  1.00  0.00     0.034 C 
HETATM  111  C   UN1     1      24.185  73.617  29.386  1.00  0.00     0.019 C 
BRANCH 109 112
HETATM  112  N   UN1     1      22.133  70.398  29.000  1.00  0.00     0.142 N 
HETATM  113  C   UN1     1      21.390  70.666  30.249  1.00  0.00     0.364 C 
HETATM  114  C   UN1     1      22.251  70.443  31.494  1.00  0.00     0.072 C 
HETATM  115  O   UN1     1      20.130  70.063  30.442  1.00  0.00    -0.188 OA
HETATM  116  H   UN1     1      21.492  70.439  28.221  1.00  0.00     0.321 HD
ENDBRANCH 109 112
ENDBRANCH 103 106
ENDBRANCH 101 103
ENDBRANCH  96 101
BRANCH  97 117
HETATM  117  O   UN1     1      30.175  72.857  31.471  1.00  0.00    -0.381 OA
HETATM  118  H   UN1     1      29.963  73.642  31.982  1.00  0.00     0.211 HD
ENDBRANCH  97 117
ENDBRANCH  91  92
ENDBRANCH  70  91
BRANCH  72 119
HETATM  119  C   UN1     1      26.014  67.820  30.592  1.00  0.00     0.170 C 
BRANCH 119 120
HETATM  120  O   UN1     1      25.420  66.585  30.249  1.00  0.00    -0.380 OA
HETATM  121  H   UN1     1      25.975  65.878  30.585  1.00  0.00     0.211 HD
ENDBRANCH 119 120
ENDBRANCH  72 119
ENDBRANCH  66  67
ENDBRANCH   4  66
BRANCH   2 122
HETATM  122  O   UN1     1      25.568  69.355  24.114  1.00  0.00    -0.380 OA
HETATM  123  H   UN1     1      24.674  69.543  23.818  1.00  0.00     0.211 HD
ENDBRANCH   2 122
BRANCH   6 124
HETATM  124  N   UN1     1      28.077  69.508  25.083  1.00  0.00     0.100 N 
HETATM  125  H   UN1     1      28.733  70.131  25.532  1.00  0.00     0.314 HD
HETATM  126  H   UN1     1      28.558  68.674  24.777  1.00  0.00     0.314 HD
ENDBRANCH   6 124
TORSDOF 40
