MODEL 1
REMARK VINA RESULT:      -7.9      0.000      0.000
REMARK WARNING: 32 MAX_TORS EXCEEDED!!!
REMARK  40 active torsions:
REMARK  status: ('A' for Active; 'I' for Inactive)
REMARK    1  A    between atoms: C_1  and  O_123 
REMARK    2  A    between atoms: C_2  and  C_6 
REMARK    3  A    between atoms: C_3  and  O_10 
REMARK    4  A    between atoms: C_4  and  N_12 
REMARK    5  A    between atoms: C_5  and  O_124 
REMARK    6  A    between atoms: C_6  and  O_7 
REMARK    7  A    between atoms: N_12  and  S_13 
REMARK    8  A    between atoms: S_13  and  C_17 
REMARK    9  A    between atoms: C_20  and  N_23 
REMARK       I    between atoms: N_23  and  C_24 
REMARK   10  A    between atoms: O_29  and  C_33 
REMARK   11  A    between atoms: O_30  and  C_34 
REMARK   12  A    between atoms: C_31  and  C_34 
REMARK   13  A    between atoms: C_36  and  O_124 
REMARK   14  A    between atoms: N_37  and  C_40 
REMARK   15  A    between atoms: C_38  and  O_125 
REMARK   16  A    between atoms: O_42  and  C_46 
REMARK   17  A    between atoms: O_43  and  C_47 
REMARK   18  A    between atoms: C_44  and  C_47 
REMARK   19  A    between atoms: C_49  and  O_125 
REMARK   20  A    between atoms: N_50  and  S_61 
REMARK   21  A    between atoms: N_50  and  C_53 
REMARK   22  A    between atoms: C_51  and  O_126 
REMARK   23  A    between atoms: C_56  and  N_63 
REMARK   24  A    between atoms: C_59  and  S_61 
REMARK       I    between atoms: C_62  and  N_63 
REMARK   25  A    between atoms: O_69  and  C_73 
REMARK   26  A    between atoms: O_70  and  C_74 
REMARK   27  A    between atoms: C_71  and  C_74 
REMARK   28  A    between atoms: C_76  and  O_126 
REMARK   29  A    between atoms: N_77  and  S_88 
REMARK   30  A    between atoms: N_77  and  C_80 
REMARK   31  A    between atoms: C_83  and  N_90 
REMARK   32  A    between atoms: C_86  and  S_88 
REMARK       I    between atoms: C_89  and  N_90 
REMARK   33  A    between atoms: O_96  and  C_100 
REMARK   34  A    between atoms: O_97  and  C_101 
REMARK   35  A    between atoms: C_98  and  C_101 
REMARK   36  A    between atoms: N_104  and  S_115 
REMARK   37  A    between atoms: N_104  and  C_107 
REMARK   38  A    between atoms: C_105  and  O_123 
REMARK   39  A    between atoms: C_110  and  N_117 
REMARK   40  A    between atoms: C_113  and  S_115 
REMARK       I    between atoms: C_116  and  N_117 
ROOT
HETATM    1  C   UNL     1      13.603 -23.452  15.167  1.00  0.00     0.179 C 
HETATM    2  C   UNL     1      15.440 -21.970  14.220  1.00  0.00     0.187 C 
HETATM    3  C   UNL     1      14.020 -22.000  14.819  1.00  0.00     0.186 C 
HETATM    4  C   UNL     1      15.865 -23.642  16.130  1.00  0.00     0.296 C 
HETATM    5  O   UNL     1      14.716 -24.271  15.553  1.00  0.00    -0.349 OA
HETATM    6  C   UNL     1      16.435 -22.490  15.275  1.00  0.00     0.303 C 
ENDROOT
BRANCH   3   7
HETATM    7  O   UNL     1      13.086 -21.257  14.033  1.00  0.00    -0.349 OA
BRANCH   7   8
HETATM    8  C   UNL     1      12.312 -21.968  13.077  1.00  0.00     0.282 C 
HETATM    9  C   UNL     1      12.501 -21.368  11.680  1.00  0.00     0.157 C 
HETATM   10  C   UNL     1      11.488 -22.033  10.732  1.00  0.00     0.173 C 
HETATM   11  C   UNL     1      10.068 -21.868  11.320  1.00  0.00     0.186 C 
HETATM   12  C   UNL     1       9.992 -22.380  12.779  1.00  0.00     0.179 C 
HETATM   13  O   UNL     1      10.997 -21.742  13.557  1.00  0.00    -0.349 OA
BRANCH   9  14
HETATM   14  N   UNL     1      13.893 -21.583  11.236  1.00  0.00    -0.208 NA
HETATM   15  H   UNL     1      14.458 -21.839  12.033  1.00  0.00     0.140 HD
BRANCH  14  16
HETATM   16  S   UNL     1      14.593 -20.119  10.643  1.00  0.00     0.215 S 
HETATM   17  O   UNL     1      15.969 -20.398   9.719  1.00  0.00    -0.211 OA
HETATM   18  O   UNL     1      13.457 -19.273   9.741  1.00  0.00    -0.211 OA
BRANCH  16  19
HETATM   19  C   UNL     1      15.052 -19.124  12.080  1.00  0.00     0.134 C 
HETATM   20  C   UNL     1      14.597 -17.668  11.926  1.00  0.00     0.024 C 
HETATM   21  C   UNL     1      14.962 -16.826  13.152  1.00  0.00     0.018 C 
HETATM   22  C   UNL     1      16.471 -16.854  13.413  1.00  0.00     0.240 C 
HETATM   23  C   UNL     1      16.937 -18.308  13.584  1.00  0.00     0.032 C 
HETATM   24  C   UNL     1      16.559 -19.171  12.374  1.00  0.00     0.018 C 
BRANCH  22  25
HETATM   25  N   UNL     1      16.796 -16.029  14.597  1.00  0.00     0.133 N 
HETATM   26  C   UNL     1      18.226 -16.021  14.974  1.00  0.00     0.352 C 
HETATM   27  O   UNL     1      18.589 -15.484  16.227  1.00  0.00    -0.189 OA
HETATM   28  C   UNL     1      19.129 -15.423  13.889  1.00  0.00     0.085 C 
HETATM   29  H   UNL     1      16.256 -16.364  15.382  1.00  0.00     0.320 HD
ENDBRANCH  22  25
ENDBRANCH  16  19
ENDBRANCH  14  16
ENDBRANCH   9  14
BRANCH  10  30
HETATM   30  O   UNL     1      11.875 -23.385  10.569  1.00  0.00    -0.391 OA
HETATM   31  H   UNL     1      11.382 -23.755   9.833  1.00  0.00     0.210 HD
ENDBRANCH  10  30
BRANCH  11  32
HETATM   32  O   UNL     1       9.048 -22.357  10.442  1.00  0.00    -0.349 OA
BRANCH  32  33
HETATM   33  C   UNL     1       8.342 -21.403   9.656  1.00  0.00     0.281 C 
HETATM   34  O   UNL     1       9.403 -20.779   8.953  1.00  0.00    -0.352 OA
HETATM   35  C   UNL     1       8.948 -19.708   8.140  1.00  0.00     0.150 C 
HETATM   36  C   UNL     1       8.011 -20.261   7.051  1.00  0.00     0.067 C 
HETATM   37  C   UNL     1       6.852 -21.059   7.671  1.00  0.00     0.144 C 
HETATM   38  C   UNL     1       7.370 -22.095   8.688  1.00  0.00     0.155 C 
BRANCH  35  39
HETATM   39  C   UNL     1      10.154 -19.004   7.509  1.00  0.00     0.196 C 
BRANCH  39  40
HETATM   40  O   UNL     1       9.739 -18.234   6.400  1.00  0.00    -0.398 OA
HETATM   41  H   UNL     1      10.288 -17.448   6.353  1.00  0.00     0.209 HD
ENDBRANCH  39  40
ENDBRANCH  35  39
BRANCH  37  42
HETATM   42  O   UNL     1       5.941 -20.181   8.304  1.00  0.00    -0.394 OA
HETATM   43  H   UNL     1       5.623 -20.600   9.107  1.00  0.00     0.210 HD
ENDBRANCH  37  42
BRANCH  38  44
HETATM   44  N   UNL     1       6.265 -22.706   9.455  1.00  0.00    -0.208 NA
HETATM   45  H   UNL     1       6.642 -23.141  10.285  1.00  0.00     0.140 HD
BRANCH  44  46
HETATM   46  S   UNL     1       5.486 -23.986   8.598  1.00  0.00     0.215 S 
HETATM   47  O   UNL     1       5.965 -24.077   6.991  1.00  0.00    -0.211 OA
HETATM   48  O   UNL     1       5.775 -25.448   9.374  1.00  0.00    -0.211 OA
BRANCH  46  49
HETATM   49  C   UNL     1       3.709 -23.640   8.641  1.00  0.00     0.134 C 
HETATM   50  C   UNL     1       2.976 -24.322   7.477  1.00  0.00     0.024 C 
HETATM   51  C   UNL     1       1.470 -24.046   7.510  1.00  0.00     0.018 C 
HETATM   52  C   UNL     1       1.174 -22.540   7.488  1.00  0.00     0.240 C 
HETATM   53  C   UNL     1       1.892 -21.856   8.658  1.00  0.00     0.032 C 
HETATM   54  C   UNL     1       3.400 -22.135   8.644  1.00  0.00     0.018 C 
BRANCH  52  55
HETATM   55  N   UNL     1      -0.279 -22.271   7.551  1.00  0.00     0.133 N 
HETATM   56  C   UNL     1      -0.862 -21.815   6.271  1.00  0.00     0.352 C 
HETATM   57  C   UNL     1      -0.284 -20.478   5.800  1.00  0.00     0.085 C 
HETATM   58  O   UNL     1      -2.264 -21.793   6.121  1.00  0.00    -0.189 OA
HETATM   59  H   UNL     1      -0.752 -23.115   7.842  1.00  0.00     0.320 HD
ENDBRANCH  52  55
ENDBRANCH  46  49
ENDBRANCH  44  46
ENDBRANCH  38  44
ENDBRANCH  32  33
ENDBRANCH  11  32
BRANCH  12  60
HETATM   60  C   UNL     1       8.649 -22.041  13.439  1.00  0.00     0.198 C 
BRANCH  60  61
HETATM   61  O   UNL     1       8.655 -20.700  13.881  1.00  0.00    -0.398 OA
HETATM   62  H   UNL     1       8.315 -20.145  13.175  1.00  0.00     0.209 HD
ENDBRANCH  60  61
ENDBRANCH  12  60
ENDBRANCH   7   8
ENDBRANCH   3   7
BRANCH   1  63
HETATM   63  C   UNL     1      12.485 -23.468  16.220  1.00  0.00     0.198 C 
BRANCH  63  64
HETATM   64  O   UNL     1      11.236 -23.662  15.592  1.00  0.00    -0.398 OA
HETATM   65  H   UNL     1      11.023 -22.873  15.088  1.00  0.00     0.209 HD
ENDBRANCH  63  64
ENDBRANCH   1  63
BRANCH   2  66
HETATM   66  O   UNL     1      15.544 -22.757  13.047  1.00  0.00    -0.391 OA
HETATM   67  H   UNL     1      15.787 -22.184  12.316  1.00  0.00     0.210 HD
ENDBRANCH   2  66
BRANCH   6  68
HETATM   68  N   UNL     1      17.707 -22.890  14.648  1.00  0.00     0.090 N 
HETATM   69  H   UNL     1      18.050 -22.138  14.068  1.00  0.00     0.313 HD
HETATM   70  H   UNL     1      18.385 -23.099  15.367  1.00  0.00     0.313 HD
ENDBRANCH   6  68
BRANCH   4  71
HETATM   71  O   UNL     1      15.361 -23.159  17.375  1.00  0.00    -0.348 OA
BRANCH  71  72
HETATM   72  C   UNL     1      15.985 -22.004  17.941  1.00  0.00     0.186 C 
HETATM   73  C   UNL     1      15.419 -21.578  19.315  1.00  0.00     0.179 C 
HETATM   74  O   UNL     1      15.995 -20.331  19.672  1.00  0.00    -0.349 OA
HETATM   75  C   UNL     1      17.404 -20.389  19.821  1.00  0.00     0.282 C 
HETATM   76  C   UNL     1      18.088 -20.725  18.486  1.00  0.00     0.157 C 
HETATM   77  C   UNL     1      17.530 -22.064  17.964  1.00  0.00     0.173 C 
BRANCH  73  78
HETATM   78  C   UNL     1      13.898 -21.383  19.267  1.00  0.00     0.198 C 
BRANCH  78  79
HETATM   79  O   UNL     1      13.467 -20.638  20.387  1.00  0.00    -0.398 OA
HETATM   80  H   UNL     1      14.123 -20.728  21.082  1.00  0.00     0.209 HD
ENDBRANCH  78  79
ENDBRANCH  73  78
BRANCH  75  81
HETATM   81  O   UNL     1      17.691 -19.052  20.217  1.00  0.00    -0.349 OA
BRANCH  81  82
HETATM   82  C   UNL     1      16.675 -18.064  20.027  1.00  0.00     0.186 C 
HETATM   83  C   UNL     1      16.295 -17.232  21.276  1.00  0.00     0.176 C 
HETATM   84  O   UNL     1      15.215 -16.354  20.962  1.00  0.00    -0.379 OA
HETATM   85  C   UNL     1      15.470 -15.465  19.882  1.00  0.00     0.191 C 
HETATM   86  C   UNL     1      15.743 -16.247  18.587  1.00  0.00     0.126 C 
HETATM   87  C   UNL     1      16.960 -17.160  18.809  1.00  0.00     0.170 C 
BRANCH  83  88
HETATM   88  C   UNL     1      15.811 -18.130  22.424  1.00  0.00     0.198 C 
BRANCH  88  89
HETATM   89  O   UNL     1      14.613 -18.781  22.060  1.00  0.00    -0.398 OA
HETATM   90  H   UNL     1      13.888 -18.367  22.531  1.00  0.00     0.209 HD
ENDBRANCH  88  89
ENDBRANCH  83  88
BRANCH  86  91
HETATM   91  N   UNL     1      15.937 -15.314  17.456  1.00  0.00    -0.210 NA
HETATM   92  H   UNL     1      16.598 -14.603  17.733  1.00  0.00     0.140 HD
BRANCH  91  93
HETATM   93  S   UNL     1      14.480 -14.455  17.088  1.00  0.00     0.215 S 
HETATM   94  O   UNL     1      13.860 -14.849  15.578  1.00  0.00    -0.211 OA
HETATM   95  O   UNL     1      13.316 -14.738  18.267  1.00  0.00    -0.211 OA
BRANCH  93  96
HETATM   96  C   UNL     1      14.849 -12.684  17.089  1.00  0.00     0.134 C 
HETATM   97  C   UNL     1      16.175 -12.366  17.792  1.00  0.00     0.024 C 
HETATM   98  C   UNL     1      16.481 -10.866  17.749  1.00  0.00     0.018 C 
HETATM   99  C   UNL     1      15.357 -10.037  18.388  1.00  0.00     0.240 C 
HETATM  100  C   UNL     1      14.028 -10.347  17.688  1.00  0.00     0.032 C 
HETATM  101  C   UNL     1      13.715 -11.849  17.703  1.00  0.00     0.018 C 
BRANCH  99 102
HETATM  102  N   UNL     1      15.645  -8.590  18.315  1.00  0.00     0.133 N 
HETATM  103  C   UNL     1      15.552  -7.902  19.619  1.00  0.00     0.352 C 
HETATM  104  C   UNL     1      14.123  -7.889  20.167  1.00  0.00     0.085 C 
HETATM  105  O   UNL     1      16.114  -6.615  19.760  1.00  0.00    -0.189 OA
HETATM  106  H   UNL     1      16.575  -8.463  17.942  1.00  0.00     0.320 HD
ENDBRANCH  99 102
ENDBRANCH  93  96
ENDBRANCH  91  93
ENDBRANCH  86  91
BRANCH  87 107
HETATM  107  O   UNL     1      18.107 -16.346  18.968  1.00  0.00    -0.391 OA
HETATM  108  H   UNL     1      18.885 -16.908  18.940  1.00  0.00     0.210 HD
ENDBRANCH  87 107
ENDBRANCH  81  82
ENDBRANCH  75  81
BRANCH  76 109
HETATM  109  N   UNL     1      19.549 -20.798  18.687  1.00  0.00    -0.208 NA
HETATM  110  H   UNL     1      19.818 -20.142  19.408  1.00  0.00     0.140 HD
BRANCH 109 111
HETATM  111  S   UNL     1      20.435 -20.303  17.293  1.00  0.00     0.215 S 
HETATM  112  O   UNL     1      21.823 -21.218  17.047  1.00  0.00    -0.211 OA
HETATM  113  O   UNL     1      19.436 -20.389  15.945  1.00  0.00    -0.211 OA
BRANCH 111 114
HETATM  114  C   UNL     1      20.906 -18.578  17.566  1.00  0.00     0.134 C 
HETATM  115  C   UNL     1      21.344 -17.897  16.263  1.00  0.00     0.024 C 
HETATM  116  C   UNL     1      21.744 -16.435  16.490  1.00  0.00     0.018 C 
HETATM  117  C   UNL     1      22.871 -16.317  17.520  1.00  0.00     0.240 C 
HETATM  118  C   UNL     1      22.443 -16.981  18.838  1.00  0.00     0.032 C 
HETATM  119  C   UNL     1      22.009 -18.437  18.626  1.00  0.00     0.018 C 
BRANCH 117 120
HETATM  120  N   UNL     1      23.221 -14.895  17.723  1.00  0.00     0.133 N 
HETATM  121  C   UNL     1      24.666 -14.613  17.593  1.00  0.00     0.352 C 
HETATM  122  C   UNL     1      25.120 -14.638  16.130  1.00  0.00     0.085 C 
HETATM  123  O   UNL     1      25.196 -13.466  18.222  1.00  0.00    -0.189 OA
HETATM  124  H   UNL     1      22.909 -14.616  18.642  1.00  0.00     0.320 HD
ENDBRANCH 117 120
ENDBRANCH 111 114
ENDBRANCH 109 111
ENDBRANCH  76 109
BRANCH  77 125
HETATM  125  O   UNL     1      18.035 -23.092  18.796  1.00  0.00    -0.391 OA
HETATM  126  H   UNL     1      17.594 -23.912  18.566  1.00  0.00     0.210 HD
ENDBRANCH  77 125
ENDBRANCH  71  72
ENDBRANCH   4  71
TORSDOF 40
ENDMDL
MODEL 2
REMARK VINA RESULT:      -7.7      5.091     16.829
REMARK WARNING: 32 MAX_TORS EXCEEDED!!!
REMARK  40 active torsions:
REMARK  status: ('A' for Active; 'I' for Inactive)
REMARK    1  A    between atoms: C_1  and  O_123 
REMARK    2  A    between atoms: C_2  and  C_6 
REMARK    3  A    between atoms: C_3  and  O_10 
REMARK    4  A    between atoms: C_4  and  N_12 
REMARK    5  A    between atoms: C_5  and  O_124 
REMARK    6  A    between atoms: C_6  and  O_7 
REMARK    7  A    between atoms: N_12  and  S_13 
REMARK    8  A    between atoms: S_13  and  C_17 
REMARK    9  A    between atoms: C_20  and  N_23 
REMARK       I    between atoms: N_23  and  C_24 
REMARK   10  A    between atoms: O_29  and  C_33 
REMARK   11  A    between atoms: O_30  and  C_34 
REMARK   12  A    between atoms: C_31  and  C_34 
REMARK   13  A    between atoms: C_36  and  O_124 
REMARK   14  A    between atoms: N_37  and  C_40 
REMARK   15  A    between atoms: C_38  and  O_125 
REMARK   16  A    between atoms: O_42  and  C_46 
REMARK   17  A    between atoms: O_43  and  C_47 
REMARK   18  A    between atoms: C_44  and  C_47 
REMARK   19  A    between atoms: C_49  and  O_125 
REMARK   20  A    between atoms: N_50  and  S_61 
REMARK   21  A    between atoms: N_50  and  C_53 
REMARK   22  A    between atoms: C_51  and  O_126 
REMARK   23  A    between atoms: C_56  and  N_63 
REMARK   24  A    between atoms: C_59  and  S_61 
REMARK       I    between atoms: C_62  and  N_63 
REMARK   25  A    between atoms: O_69  and  C_73 
REMARK   26  A    between atoms: O_70  and  C_74 
REMARK   27  A    between atoms: C_71  and  C_74 
REMARK   28  A    between atoms: C_76  and  O_126 
REMARK   29  A    between atoms: N_77  and  S_88 
REMARK   30  A    between atoms: N_77  and  C_80 
REMARK   31  A    between atoms: C_83  and  N_90 
REMARK   32  A    between atoms: C_86  and  S_88 
REMARK       I    between atoms: C_89  and  N_90 
REMARK   33  A    between atoms: O_96  and  C_100 
REMARK   34  A    between atoms: O_97  and  C_101 
REMARK   35  A    between atoms: C_98  and  C_101 
REMARK   36  A    between atoms: N_104  and  S_115 
REMARK   37  A    between atoms: N_104  and  C_107 
REMARK   38  A    between atoms: C_105  and  O_123 
REMARK   39  A    between atoms: C_110  and  N_117 
REMARK   40  A    between atoms: C_113  and  S_115 
REMARK       I    between atoms: C_116  and  N_117 
ROOT
HETATM    1  C   UNL     1      10.301 -22.655  10.820  1.00  0.00     0.179 C 
HETATM    2  C   UNL     1      10.708 -20.228  11.463  1.00  0.00     0.187 C 
HETATM    3  C   UNL     1      11.185 -21.402  10.586  1.00  0.00     0.186 C 
HETATM    4  C   UNL     1       8.409 -21.081  10.678  1.00  0.00     0.296 C 
HETATM    5  O   UNL     1       8.945 -22.323  11.147  1.00  0.00    -0.349 OA
HETATM    6  C   UNL     1       9.270 -19.855  11.051  1.00  0.00     0.303 C 
ENDROOT
BRANCH   3   7
HETATM    7  O   UNL     1      12.596 -21.611  10.684  1.00  0.00    -0.349 OA
BRANCH   7   8
HETATM    8  C   UNL     1      13.419 -20.472  10.897  1.00  0.00     0.282 C 
HETATM    9  C   UNL     1      14.802 -20.686  10.270  1.00  0.00     0.157 C 
HETATM   10  C   UNL     1      15.711 -19.526  10.710  1.00  0.00     0.173 C 
HETATM   11  C   UNL     1      15.707 -19.442  12.255  1.00  0.00     0.186 C 
HETATM   12  C   UNL     1      14.267 -19.359  12.816  1.00  0.00     0.179 C 
HETATM   13  O   UNL     1      13.498 -20.444  12.312  1.00  0.00    -0.349 OA
BRANCH   9  14
HETATM   14  N   UNL     1      14.671 -20.756   8.801  1.00  0.00    -0.208 NA
HETATM   15  H   UNL     1      13.702 -20.621   8.549  1.00  0.00     0.140 HD
BRANCH  14  16
HETATM   16  S   UNL     1      15.074 -22.328   8.212  1.00  0.00     0.215 S 
HETATM   17  O   UNL     1      16.121 -23.147   9.239  1.00  0.00    -0.211 OA
HETATM   18  O   UNL     1      13.671 -23.224   7.986  1.00  0.00    -0.211 OA
BRANCH  16  19
HETATM   19  C   UNL     1      15.886 -22.109   6.611  1.00  0.00     0.134 C 
HETATM   20  C   UNL     1      17.412 -22.066   6.754  1.00  0.00     0.024 C 
HETATM   21  C   UNL     1      18.105 -21.905   5.398  1.00  0.00     0.018 C 
HETATM   22  C   UNL     1      17.633 -20.635   4.684  1.00  0.00     0.240 C 
HETATM   23  C   UNL     1      16.106 -20.671   4.521  1.00  0.00     0.032 C 
HETATM   24  C   UNL     1      15.397 -20.856   5.869  1.00  0.00     0.018 C 
BRANCH  22  25
HETATM   25  N   UNL     1      18.323 -20.500   3.382  1.00  0.00     0.133 N 
HETATM   26  C   UNL     1      18.806 -19.136   3.074  1.00  0.00     0.352 C 
HETATM   27  O   UNL     1      19.236 -18.855   1.761  1.00  0.00    -0.189 OA
HETATM   28  C   UNL     1      19.862 -18.637   4.067  1.00  0.00     0.085 C 
HETATM   29  H   UNL     1      17.691 -20.793   2.650  1.00  0.00     0.320 HD
ENDBRANCH  22  25
ENDBRANCH  16  19
ENDBRANCH  14  16
ENDBRANCH   9  14
BRANCH  10  30
HETATM   30  O   UNL     1      15.239 -18.347  10.083  1.00  0.00    -0.391 OA
HETATM   31  H   UNL     1      15.358 -18.440   9.135  1.00  0.00     0.210 HD
ENDBRANCH  10  30
BRANCH  11  32
HETATM   32  O   UNL     1      16.621 -18.461  12.755  1.00  0.00    -0.349 OA
BRANCH  32  33
HETATM   33  C   UNL     1      17.462 -18.837  13.840  1.00  0.00     0.281 C 
HETATM   34  O   UNL     1      18.554 -19.428  13.157  1.00  0.00    -0.352 OA
HETATM   35  C   UNL     1      19.515 -19.968  14.051  1.00  0.00     0.150 C 
HETATM   36  C   UNL     1      20.129 -18.827  14.882  1.00  0.00     0.067 C 
HETATM   37  C   UNL     1      19.039 -18.024  15.610  1.00  0.00     0.144 C 
HETATM   38  C   UNL     1      17.915 -17.606  14.641  1.00  0.00     0.155 C 
BRANCH  35  39
HETATM   39  C   UNL     1      20.599 -20.697  13.249  1.00  0.00     0.196 C 
BRANCH  39  40
HETATM   40  O   UNL     1      21.691 -21.011  14.087  1.00  0.00    -0.398 OA
HETATM   41  H   UNL     1      22.179 -20.205  14.266  1.00  0.00     0.209 HD
ENDBRANCH  39  40
ENDBRANCH  35  39
BRANCH  37  42
HETATM   42  O   UNL     1      18.498 -18.787  16.671  1.00  0.00    -0.394 OA
HETATM   43  H   UNL     1      18.261 -18.191  17.385  1.00  0.00     0.210 HD
ENDBRANCH  37  42
BRANCH  38  44
HETATM   44  N   UNL     1      16.758 -17.037  15.362  1.00  0.00    -0.208 NA
HETATM   45  H   UNL     1      15.963 -17.649  15.244  1.00  0.00     0.140 HD
BRANCH  44  46
HETATM   46  S   UNL     1      16.250 -15.519  14.716  1.00  0.00     0.215 S 
HETATM   47  O   UNL     1      17.539 -14.545  14.257  1.00  0.00    -0.211 OA
HETATM   48  O   UNL     1      15.221 -15.772  13.412  1.00  0.00    -0.211 OA
BRANCH  46  49
HETATM   49  C   UNL     1      15.337 -14.669  16.028  1.00  0.00     0.134 C 
HETATM   50  C   UNL     1      14.171 -13.848  15.461  1.00  0.00     0.024 C 
HETATM   51  C   UNL     1      13.384 -13.134  16.564  1.00  0.00     0.018 C 
HETATM   52  C   UNL     1      14.292 -12.222  17.401  1.00  0.00     0.240 C 
HETATM   53  C   UNL     1      15.450 -13.042  17.984  1.00  0.00     0.032 C 
HETATM   54  C   UNL     1      16.239 -13.772  16.889  1.00  0.00     0.018 C 
BRANCH  52  55
HETATM   55  N   UNL     1      13.540 -11.556  18.486  1.00  0.00     0.133 N 
HETATM   56  C   UNL     1      13.439 -10.088  18.334  1.00  0.00     0.352 C 
HETATM   57  C   UNL     1      14.801  -9.393  18.383  1.00  0.00     0.085 C 
HETATM   58  O   UNL     1      12.525  -9.374  19.137  1.00  0.00    -0.189 OA
HETATM   59  H   UNL     1      12.608 -11.945  18.521  1.00  0.00     0.320 HD
ENDBRANCH  52  55
ENDBRANCH  46  49
ENDBRANCH  44  46
ENDBRANCH  38  44
ENDBRANCH  32  33
ENDBRANCH  11  32
BRANCH  12  60
HETATM   60  C   UNL     1      14.238 -19.477  14.346  1.00  0.00     0.198 C 
BRANCH  60  61
HETATM   61  O   UNL     1      14.239 -18.192  14.929  1.00  0.00    -0.398 OA
HETATM   62  H   UNL     1      14.426 -18.282  15.866  1.00  0.00     0.209 HD
ENDBRANCH  60  61
ENDBRANCH  12  60
ENDBRANCH   7   8
ENDBRANCH   3   7
BRANCH   1  63
HETATM   63  C   UNL     1      10.386 -23.621   9.629  1.00  0.00     0.198 C 
BRANCH  63  64
HETATM   64  O   UNL     1      10.787 -22.922   8.470  1.00  0.00    -0.398 OA
HETATM   65  H   UNL     1      11.604 -22.457   8.663  1.00  0.00     0.209 HD
ENDBRANCH  63  64
ENDBRANCH   1  63
BRANCH   2  66
HETATM   66  O   UNL     1      10.735 -20.542  12.844  1.00  0.00    -0.391 OA
HETATM   67  H   UNL     1       9.982 -21.102  13.043  1.00  0.00     0.210 HD
ENDBRANCH   2  66
BRANCH   6  68
HETATM   68  N   UNL     1       8.610 -19.060  12.103  1.00  0.00     0.090 N 
HETATM   69  H   UNL     1       8.124 -18.281  11.683  1.00  0.00     0.313 HD
HETATM   70  H   UNL     1       7.952 -19.642  12.601  1.00  0.00     0.313 HD
ENDBRANCH   6  68
BRANCH   4  71
HETATM   71  O   UNL     1       8.374 -21.273   9.264  1.00  0.00    -0.348 OA
BRANCH  71  72
HETATM   72  C   UNL     1       7.120 -21.089   8.599  1.00  0.00     0.186 C 
HETATM   73  C   UNL     1       7.201 -20.260   7.298  1.00  0.00     0.179 C 
HETATM   74  O   UNL     1       5.880 -20.004   6.845  1.00  0.00    -0.349 OA
HETATM   75  C   UNL     1       5.162 -21.183   6.523  1.00  0.00     0.282 C 
HETATM   76  C   UNL     1       4.945 -22.056   7.770  1.00  0.00     0.157 C 
HETATM   77  C   UNL     1       6.317 -22.393   8.386  1.00  0.00     0.173 C 
BRANCH  73  78
HETATM   78  C   UNL     1       7.877 -18.902   7.530  1.00  0.00     0.198 C 
BRANCH  78  79
HETATM   79  O   UNL     1       7.242 -17.904   6.759  1.00  0.00    -0.398 OA
HETATM   80  H   UNL     1       6.295 -18.057   6.786  1.00  0.00     0.209 HD
ENDBRANCH  78  79
ENDBRANCH  73  78
BRANCH  75  81
HETATM   81  O   UNL     1       3.930 -20.635   6.066  1.00  0.00    -0.349 OA
BRANCH  81  82
HETATM   82  C   UNL     1       3.744 -20.489   4.655  1.00  0.00     0.186 C 
HETATM   83  C   UNL     1       2.611 -19.531   4.215  1.00  0.00     0.176 C 
HETATM   84  O   UNL     1       2.484 -19.553   2.794  1.00  0.00    -0.379 OA
HETATM   85  C   UNL     1       3.670 -19.211   2.089  1.00  0.00     0.191 C 
HETATM   86  C   UNL     1       4.798 -20.206   2.407  1.00  0.00     0.126 C 
HETATM   87  C   UNL     1       5.066 -20.180   3.922  1.00  0.00     0.170 C 
BRANCH  83  88
HETATM   88  C   UNL     1       1.253 -19.966   4.785  1.00  0.00     0.198 C 
BRANCH  88  89
HETATM   89  O   UNL     1       1.166 -21.375   4.809  1.00  0.00    -0.398 OA
HETATM   90  H   UNL     1       1.510 -21.714   3.980  1.00  0.00     0.209 HD
ENDBRANCH  88  89
ENDBRANCH  83  88
BRANCH  86  91
HETATM   91  N   UNL     1       6.005 -19.884   1.616  1.00  0.00    -0.210 NA
HETATM   92  H   UNL     1       6.061 -18.882   1.505  1.00  0.00     0.140 HD
BRANCH  91  93
HETATM   93  S   UNL     1       5.890 -20.510   0.006  1.00  0.00     0.215 S 
HETATM   94  O   UNL     1       6.907 -21.822  -0.253  1.00  0.00    -0.211 OA
HETATM   95  O   UNL     1       4.306 -20.948  -0.343  1.00  0.00    -0.211 OA
BRANCH  93  96
HETATM   96  C   UNL     1       6.371 -19.202  -1.147  1.00  0.00     0.134 C 
HETATM   97  C   UNL     1       7.862 -18.856  -1.046  1.00  0.00     0.024 C 
HETATM   98  C   UNL     1       8.250 -17.772  -2.056  1.00  0.00     0.018 C 
HETATM   99  C   UNL     1       7.419 -16.494  -1.866  1.00  0.00     0.240 C 
HETATM  100  C   UNL     1       5.927 -16.832  -1.970  1.00  0.00     0.032 C 
HETATM  101  C   UNL     1       5.523 -17.932  -0.980  1.00  0.00     0.018 C 
BRANCH  99 102
HETATM  102  N   UNL     1       7.778 -15.464  -2.863  1.00  0.00     0.133 N 
HETATM  103  C   UNL     1       8.238 -14.195  -2.263  1.00  0.00     0.352 C 
HETATM  104  C   UNL     1       7.125 -13.482  -1.492  1.00  0.00     0.085 C 
HETATM  105  O   UNL     1       8.917 -13.258  -3.070  1.00  0.00    -0.189 OA
HETATM  106  H   UNL     1       8.507 -15.830  -3.458  1.00  0.00     0.320 HD
ENDBRANCH  99 102
ENDBRANCH  93  96
ENDBRANCH  91  93
ENDBRANCH  86  91
BRANCH  87 107
HETATM  107  O   UNL     1       5.614 -18.919   4.257  1.00  0.00    -0.391 OA
HETATM  108  H   UNL     1       4.892 -18.302   4.398  1.00  0.00     0.210 HD
ENDBRANCH  87 107
ENDBRANCH  81  82
ENDBRANCH  75  81
BRANCH  76 109
HETATM  109  N   UNL     1       4.214 -23.281   7.391  1.00  0.00    -0.208 NA
HETATM  110  H   UNL     1       4.111 -23.309   6.386  1.00  0.00     0.140 HD
BRANCH 109 111
HETATM  111  S   UNL     1       2.599 -23.303   7.996  1.00  0.00     0.215 S 
HETATM  112  O   UNL     1       2.265 -22.002   9.007  1.00  0.00    -0.211 OA
HETATM  113  O   UNL     1       1.526 -23.326   6.704  1.00  0.00    -0.211 OA
BRANCH 111 114
HETATM  114  C   UNL     1       2.422 -24.840   8.934  1.00  0.00     0.134 C 
HETATM  115  C   UNL     1       3.647 -25.748   8.772  1.00  0.00     0.024 C 
HETATM  116  C   UNL     1       3.501 -27.051   9.564  1.00  0.00     0.018 C 
HETATM  117  C   UNL     1       2.247 -27.824   9.145  1.00  0.00     0.240 C 
HETATM  118  C   UNL     1       1.006 -26.934   9.315  1.00  0.00     0.032 C 
HETATM  119  C   UNL     1       1.147 -25.610   8.554  1.00  0.00     0.018 C 
BRANCH 117 120
HETATM  120  N   UNL     1       2.131 -29.065   9.937  1.00  0.00     0.133 N 
HETATM  121  C   UNL     1       1.155 -30.031   9.392  1.00  0.00     0.352 C 
HETATM  122  C   UNL     1       1.694 -30.739   8.144  1.00  0.00     0.085 C 
HETATM  123  O   UNL     1       0.587 -30.991  10.257  1.00  0.00    -0.189 OA
HETATM  124  H   UNL     1       1.863 -28.820  10.880  1.00  0.00     0.320 HD
ENDBRANCH 117 120
ENDBRANCH 111 114
ENDBRANCH 109 111
ENDBRANCH  76 109
BRANCH  77 125
HETATM  125  O   UNL     1       6.962 -23.309   7.521  1.00  0.00    -0.391 OA
HETATM  126  H   UNL     1       6.347 -24.017   7.316  1.00  0.00     0.210 HD
ENDBRANCH  77 125
ENDBRANCH  71  72
ENDBRANCH   4  71
TORSDOF 40
ENDMDL
MODEL 3
REMARK VINA RESULT:      -7.5     22.070     28.109
REMARK WARNING: 32 MAX_TORS EXCEEDED!!!
REMARK  40 active torsions:
REMARK  status: ('A' for Active; 'I' for Inactive)
REMARK    1  A    between atoms: C_1  and  O_123 
REMARK    2  A    between atoms: C_2  and  C_6 
REMARK    3  A    between atoms: C_3  and  O_10 
REMARK    4  A    between atoms: C_4  and  N_12 
REMARK    5  A    between atoms: C_5  and  O_124 
REMARK    6  A    between atoms: C_6  and  O_7 
REMARK    7  A    between atoms: N_12  and  S_13 
REMARK    8  A    between atoms: S_13  and  C_17 
REMARK    9  A    between atoms: C_20  and  N_23 
REMARK       I    between atoms: N_23  and  C_24 
REMARK   10  A    between atoms: O_29  and  C_33 
REMARK   11  A    between atoms: O_30  and  C_34 
REMARK   12  A    between atoms: C_31  and  C_34 
REMARK   13  A    between atoms: C_36  and  O_124 
REMARK   14  A    between atoms: N_37  and  C_40 
REMARK   15  A    between atoms: C_38  and  O_125 
REMARK   16  A    between atoms: O_42  and  C_46 
REMARK   17  A    between atoms: O_43  and  C_47 
REMARK   18  A    between atoms: C_44  and  C_47 
REMARK   19  A    between atoms: C_49  and  O_125 
REMARK   20  A    between atoms: N_50  and  S_61 
REMARK   21  A    between atoms: N_50  and  C_53 
REMARK   22  A    between atoms: C_51  and  O_126 
REMARK   23  A    between atoms: C_56  and  N_63 
REMARK   24  A    between atoms: C_59  and  S_61 
REMARK       I    between atoms: C_62  and  N_63 
REMARK   25  A    between atoms: O_69  and  C_73 
REMARK   26  A    between atoms: O_70  and  C_74 
REMARK   27  A    between atoms: C_71  and  C_74 
REMARK   28  A    between atoms: C_76  and  O_126 
REMARK   29  A    between atoms: N_77  and  S_88 
REMARK   30  A    between atoms: N_77  and  C_80 
REMARK   31  A    between atoms: C_83  and  N_90 
REMARK   32  A    between atoms: C_86  and  S_88 
REMARK       I    between atoms: C_89  and  N_90 
REMARK   33  A    between atoms: O_96  and  C_100 
REMARK   34  A    between atoms: O_97  and  C_101 
REMARK   35  A    between atoms: C_98  and  C_101 
REMARK   36  A    between atoms: N_104  and  S_115 
REMARK   37  A    between atoms: N_104  and  C_107 
REMARK   38  A    between atoms: C_105  and  O_123 
REMARK   39  A    between atoms: C_110  and  N_117 
REMARK   40  A    between atoms: C_113  and  S_115 
REMARK       I    between atoms: C_116  and  N_117 
ROOT
HETATM    1  C   UNL     1      -2.345  -0.816  -2.329  1.00  0.00     0.179 C 
HETATM    2  C   UNL     1      -1.891   0.562  -0.241  1.00  0.00     0.187 C 
HETATM    3  C   UNL     1      -2.885  -0.384  -0.942  1.00  0.00     0.186 C 
HETATM    4  C   UNL     1      -0.208  -1.161  -1.151  1.00  0.00     0.296 C 
HETATM    5  O   UNL     1      -0.914  -0.895  -2.368  1.00  0.00    -0.349 OA
HETATM    6  C   UNL     1      -0.571  -0.196  -0.001  1.00  0.00     0.303 C 
ENDROOT
BRANCH   3   7
HETATM    7  O   UNL     1      -4.220   0.128  -0.927  1.00  0.00    -0.349 OA
BRANCH   7   8
HETATM    8  C   UNL     1      -5.130  -0.425   0.015  1.00  0.00     0.282 C 
HETATM    9  C   UNL     1      -4.648  -0.159   1.445  1.00  0.00     0.157 C 
HETATM   10  C   UNL     1      -5.547  -0.954   2.408  1.00  0.00     0.173 C 
HETATM   11  C   UNL     1      -5.540  -2.442   1.988  1.00  0.00     0.186 C 
HETATM   12  C   UNL     1      -5.912  -2.615   0.496  1.00  0.00     0.179 C 
HETATM   13  O   UNL     1      -5.057  -1.804  -0.302  1.00  0.00    -0.349 OA
BRANCH   9  14
HETATM   14  N   UNL     1      -4.694   1.291   1.720  1.00  0.00    -0.208 NA
HETATM   15  H   UNL     1      -4.204   1.782   0.986  1.00  0.00     0.140 HD
BRANCH  14  16
HETATM   16  S   UNL     1      -3.838   1.681   3.169  1.00  0.00     0.215 S 
HETATM   17  O   UNL     1      -4.799   1.527   4.539  1.00  0.00    -0.211 OA
HETATM   18  O   UNL     1      -2.480   0.702   3.305  1.00  0.00    -0.211 OA
BRANCH  16  19
HETATM   19  C   UNL     1      -3.301   3.401   3.028  1.00  0.00     0.134 C 
HETATM   20  C   UNL     1      -3.572   4.184   4.318  1.00  0.00     0.024 C 
HETATM   21  C   UNL     1      -3.096   5.636   4.212  1.00  0.00     0.018 C 
HETATM   22  C   UNL     1      -3.772   6.354   3.039  1.00  0.00     0.240 C 
HETATM   23  C   UNL     1      -3.496   5.587   1.737  1.00  0.00     0.032 C 
HETATM   24  C   UNL     1      -3.945   4.124   1.835  1.00  0.00     0.018 C 
BRANCH  22  25
HETATM   25  N   UNL     1      -3.300   7.754   2.964  1.00  0.00     0.133 N 
HETATM   26  C   UNL     1      -1.874   7.948   3.308  1.00  0.00     0.352 C 
HETATM   27  O   UNL     1      -1.405   9.262   3.519  1.00  0.00    -0.189 OA
HETATM   28  C   UNL     1      -0.923   7.221   2.351  1.00  0.00     0.085 C 
HETATM   29  H   UNL     1      -3.863   8.318   3.585  1.00  0.00     0.320 HD
ENDBRANCH  22  25
ENDBRANCH  16  19
ENDBRANCH  14  16
ENDBRANCH   9  14
BRANCH  10  30
HETATM   30  O   UNL     1      -6.835  -0.367   2.376  1.00  0.00    -0.391 OA
HETATM   31  H   UNL     1      -7.273  -0.642   1.567  1.00  0.00     0.210 HD
ENDBRANCH  10  30
BRANCH  11  32
HETATM   32  O   UNL     1      -6.260  -3.275   2.904  1.00  0.00    -0.349 OA
BRANCH  32  33
HETATM   33  C   UNL     1      -5.619  -3.617   4.127  1.00  0.00     0.281 C 
HETATM   34  O   UNL     1      -6.185  -2.668   5.015  1.00  0.00    -0.352 OA
HETATM   35  C   UNL     1      -5.629  -2.756   6.317  1.00  0.00     0.150 C 
HETATM   36  C   UNL     1      -5.973  -4.129   6.922  1.00  0.00     0.067 C 
HETATM   37  C   UNL     1      -5.502  -5.271   6.006  1.00  0.00     0.144 C 
HETATM   38  C   UNL     1      -5.972  -5.050   4.555  1.00  0.00     0.155 C 
BRANCH  35  39
HETATM   39  C   UNL     1      -6.193  -1.626   7.186  1.00  0.00     0.196 C 
BRANCH  39  40
HETATM   40  O   UNL     1      -5.420  -0.456   7.018  1.00  0.00    -0.398 OA
HETATM   41  H   UNL     1      -4.645  -0.520   7.580  1.00  0.00     0.209 HD
ENDBRANCH  39  40
ENDBRANCH  35  39
BRANCH  37  42
HETATM   42  O   UNL     1      -4.092  -5.374   6.043  1.00  0.00    -0.394 OA
HETATM   43  H   UNL     1      -3.774  -5.524   5.149  1.00  0.00     0.210 HD
ENDBRANCH  37  42
BRANCH  38  44
HETATM   44  N   UNL     1      -5.341  -6.009   3.625  1.00  0.00    -0.208 NA
HETATM   45  H   UNL     1      -5.562  -5.742   2.677  1.00  0.00     0.140 HD
BRANCH  44  46
HETATM   46  S   UNL     1      -5.964  -7.610   3.793  1.00  0.00     0.215 S 
HETATM   47  O   UNL     1      -6.559  -8.230   2.350  1.00  0.00    -0.211 OA
HETATM   48  O   UNL     1      -4.774  -8.622   4.411  1.00  0.00    -0.211 OA
BRANCH  46  49
HETATM   49  C   UNL     1      -7.331  -7.520   4.976  1.00  0.00     0.134 C 
HETATM   50  C   UNL     1      -7.021  -8.309   6.256  1.00  0.00     0.024 C 
HETATM   51  C   UNL     1      -8.166  -8.229   7.269  1.00  0.00     0.018 C 
HETATM   52  C   UNL     1      -9.485  -8.731   6.667  1.00  0.00     0.240 C 
HETATM   53  C   UNL     1      -9.809  -7.935   5.397  1.00  0.00     0.032 C 
HETATM   54  C   UNL     1      -8.663  -7.997   4.378  1.00  0.00     0.018 C 
BRANCH  52  55
HETATM   55  N   UNL     1     -10.599  -8.626   7.635  1.00  0.00     0.133 N 
HETATM   56  C   UNL     1     -10.415  -9.442   8.854  1.00  0.00     0.352 C 
HETATM   57  C   UNL     1     -10.355 -10.942   8.559  1.00  0.00     0.085 C 
HETATM   58  O   UNL     1     -11.255  -9.220   9.965  1.00  0.00    -0.189 OA
HETATM   59  H   UNL     1     -10.704  -7.658   7.903  1.00  0.00     0.320 HD
ENDBRANCH  52  55
ENDBRANCH  46  49
ENDBRANCH  44  46
ENDBRANCH  38  44
ENDBRANCH  32  33
ENDBRANCH  11  32
BRANCH  12  60
HETATM   60  C   UNL     1      -5.714  -4.059   0.017  1.00  0.00     0.198 C 
BRANCH  60  61
HETATM   61  O   UNL     1      -6.507  -4.935   0.789  1.00  0.00    -0.398 OA
HETATM   62  H   UNL     1      -7.149  -4.415   1.278  1.00  0.00     0.209 HD
ENDBRANCH  60  61
ENDBRANCH  12  60
ENDBRANCH   7   8
ENDBRANCH   3   7
BRANCH   1  63
HETATM   63  C   UNL     1      -3.005  -2.122  -2.797  1.00  0.00     0.198 C 
BRANCH  63  64
HETATM   64  O   UNL     1      -4.356  -1.886  -3.129  1.00  0.00    -0.398 OA
HETATM   65  H   UNL     1      -4.788  -1.477  -2.377  1.00  0.00     0.209 HD
ENDBRANCH  63  64
ENDBRANCH   1  63
BRANCH   2  66
HETATM   66  O   UNL     1      -1.631   1.728  -1.002  1.00  0.00    -0.391 OA
HETATM   67  H   UNL     1      -0.688   1.902  -0.979  1.00  0.00     0.210 HD
ENDBRANCH   2  66
BRANCH   6  68
HETATM   68  N   UNL     1       0.536   0.741   0.258  1.00  0.00     0.090 N 
HETATM   69  H   UNL     1       1.123   0.377   0.995  1.00  0.00     0.313 HD
HETATM   70  H   UNL     1       1.083   0.857  -0.583  1.00  0.00     0.313 HD
ENDBRANCH   6  68
BRANCH   4  71
HETATM   71  O   UNL     1      -0.606  -2.497  -0.847  1.00  0.00    -0.348 OA
BRANCH  71  72
HETATM   72  C   UNL     1       0.265  -3.558  -1.250  1.00  0.00     0.186 C 
HETATM   73  C   UNL     1       0.876  -4.364  -0.082  1.00  0.00     0.179 C 
HETATM   74  O   UNL     1       1.847  -5.255  -0.610  1.00  0.00    -0.349 OA
HETATM   75  C   UNL     1       1.303  -6.206  -1.509  1.00  0.00     0.282 C 
HETATM   76  C   UNL     1       0.734  -5.520  -2.762  1.00  0.00     0.157 C 
HETATM   77  C   UNL     1      -0.331  -4.493  -2.327  1.00  0.00     0.173 C 
BRANCH  73  78
HETATM   78  C   UNL     1       1.590  -3.453   0.926  1.00  0.00     0.198 C 
BRANCH  78  79
HETATM   79  O   UNL     1       2.936  -3.853   1.076  1.00  0.00    -0.398 OA
HETATM   80  H   UNL     1       3.423  -3.579   0.296  1.00  0.00     0.209 HD
ENDBRANCH  78  79
ENDBRANCH  73  78
BRANCH  75  81
HETATM   81  O   UNL     1       2.459  -6.971  -1.829  1.00  0.00    -0.349 OA
BRANCH  81  82
HETATM   82  C   UNL     1       2.357  -8.397  -1.765  1.00  0.00     0.186 C 
HETATM   83  C   UNL     1       3.690  -9.178  -1.867  1.00  0.00     0.176 C 
HETATM   84  O   UNL     1       3.429 -10.580  -1.877  1.00  0.00    -0.379 OA
HETATM   85  C   UNL     1       2.708 -11.057  -0.748  1.00  0.00     0.191 C 
HETATM   86  C   UNL     1       1.325 -10.390  -0.667  1.00  0.00     0.126 C 
HETATM   87  C   UNL     1       1.516  -8.867  -0.560  1.00  0.00     0.170 C 
BRANCH  83  88
HETATM   88  C   UNL     1       4.430  -8.859  -3.175  1.00  0.00     0.198 C 
BRANCH  88  89
HETATM   89  O   UNL     1       5.076  -7.608  -3.075  1.00  0.00    -0.398 OA
HETATM   90  H   UNL     1       5.905  -7.732  -2.608  1.00  0.00     0.209 HD
ENDBRANCH  88  89
ENDBRANCH  83  88
BRANCH  86  91
HETATM   91  N   UNL     1       0.555 -10.943   0.469  1.00  0.00    -0.210 NA
HETATM   92  H   UNL     1       1.121 -11.635   0.936  1.00  0.00     0.140 HD
BRANCH  91  93
HETATM   93  S   UNL     1      -0.846 -11.801  -0.076  1.00  0.00     0.215 S 
HETATM   94  O   UNL     1      -0.786 -12.166  -1.714  1.00  0.00    -0.211 OA
HETATM   95  O   UNL     1      -1.052 -13.214   0.809  1.00  0.00    -0.211 OA
BRANCH  93  96
HETATM   96  C   UNL     1      -2.296 -10.756   0.203  1.00  0.00     0.134 C 
HETATM   97  C   UNL     1      -3.315 -10.856  -0.939  1.00  0.00     0.024 C 
HETATM   98  C   UNL     1      -4.547  -9.989  -0.663  1.00  0.00     0.018 C 
HETATM   99  C   UNL     1      -4.170  -8.516  -0.448  1.00  0.00     0.240 C 
HETATM  100  C   UNL     1      -3.154  -8.407   0.696  1.00  0.00     0.032 C 
HETATM  101  C   UNL     1      -1.922  -9.286   0.446  1.00  0.00     0.018 C 
BRANCH  99 102
HETATM  102  N   UNL     1      -5.360  -7.692  -0.151  1.00  0.00     0.133 N 
HETATM  103  C   UNL     1      -6.367  -7.696  -1.233  1.00  0.00     0.352 C 
HETATM  104  C   UNL     1      -5.852  -7.021  -2.506  1.00  0.00     0.085 C 
HETATM  105  O   UNL     1      -7.672  -7.237  -0.960  1.00  0.00    -0.189 OA
HETATM  106  H   UNL     1      -5.788  -8.034   0.697  1.00  0.00     0.320 HD
ENDBRANCH  99 102
ENDBRANCH  93  96
ENDBRANCH  91  93
ENDBRANCH  86  91
BRANCH  87 107
HETATM  107  O   UNL     1       2.111  -8.579   0.691  1.00  0.00    -0.391 OA
HETATM  108  H   UNL     1       1.511  -8.862   1.385  1.00  0.00     0.210 HD
ENDBRANCH  87 107
ENDBRANCH  81  82
ENDBRANCH  75  81
BRANCH  76 109
HETATM  109  N   UNL     1       0.158  -6.539  -3.661  1.00  0.00    -0.208 NA
HETATM  110  H   UNL     1       0.493  -7.452  -3.387  1.00  0.00     0.140 HD
BRANCH 109 111
HETATM  111  S   UNL     1       0.682  -6.354  -5.294  1.00  0.00     0.215 S 
HETATM  112  O   UNL     1       0.554  -7.774  -6.183  1.00  0.00    -0.211 OA
HETATM  113  O   UNL     1      -0.209  -5.129  -6.023  1.00  0.00    -0.211 OA
BRANCH 111 114
HETATM  114  C   UNL     1       2.419  -5.855  -5.225  1.00  0.00     0.134 C 
HETATM  115  C   UNL     1       2.589  -4.355  -5.500  1.00  0.00     0.024 C 
HETATM  116  C   UNL     1       4.059  -3.927  -5.443  1.00  0.00     0.018 C 
HETATM  117  C   UNL     1       4.912  -4.719  -6.440  1.00  0.00     0.240 C 
HETATM  118  C   UNL     1       4.765  -6.224  -6.170  1.00  0.00     0.032 C 
HETATM  119  C   UNL     1       3.296  -6.666  -6.192  1.00  0.00     0.018 C 
BRANCH 117 120
HETATM  120  N   UNL     1       6.323  -4.290  -6.348  1.00  0.00     0.133 N 
HETATM  121  C   UNL     1       6.871  -3.771  -7.618  1.00  0.00     0.352 C 
HETATM  122  C   UNL     1       6.343  -2.367  -7.932  1.00  0.00     0.085 C 
HETATM  123  O   UNL     1       8.269  -3.794  -7.818  1.00  0.00    -0.189 OA
HETATM  124  H   UNL     1       6.878  -5.078  -6.044  1.00  0.00     0.320 HD
ENDBRANCH 117 120
ENDBRANCH 111 114
ENDBRANCH 109 111
ENDBRANCH  76 109
BRANCH  77 125
HETATM  125  O   UNL     1      -1.462  -5.215  -1.875  1.00  0.00    -0.391 OA
HETATM  126  H   UNL     1      -1.796  -5.742  -2.604  1.00  0.00     0.210 HD
ENDBRANCH  77 125
ENDBRANCH  71  72
ENDBRANCH   4  71
TORSDOF 40
ENDMDL
MODEL 4
REMARK VINA RESULT:      -7.5      1.775      2.551
REMARK WARNING: 32 MAX_TORS EXCEEDED!!!
REMARK  40 active torsions:
REMARK  status: ('A' for Active; 'I' for Inactive)
REMARK    1  A    between atoms: C_1  and  O_123 
REMARK    2  A    between atoms: C_2  and  C_6 
REMARK    3  A    between atoms: C_3  and  O_10 
REMARK    4  A    between atoms: C_4  and  N_12 
REMARK    5  A    between atoms: C_5  and  O_124 
REMARK    6  A    between atoms: C_6  and  O_7 
REMARK    7  A    between atoms: N_12  and  S_13 
REMARK    8  A    between atoms: S_13  and  C_17 
REMARK    9  A    between atoms: C_20  and  N_23 
REMARK       I    between atoms: N_23  and  C_24 
REMARK   10  A    between atoms: O_29  and  C_33 
REMARK   11  A    between atoms: O_30  and  C_34 
REMARK   12  A    between atoms: C_31  and  C_34 
REMARK   13  A    between atoms: C_36  and  O_124 
REMARK   14  A    between atoms: N_37  and  C_40 
REMARK   15  A    between atoms: C_38  and  O_125 
REMARK   16  A    between atoms: O_42  and  C_46 
REMARK   17  A    between atoms: O_43  and  C_47 
REMARK   18  A    between atoms: C_44  and  C_47 
REMARK   19  A    between atoms: C_49  and  O_125 
REMARK   20  A    between atoms: N_50  and  S_61 
REMARK   21  A    between atoms: N_50  and  C_53 
REMARK   22  A    between atoms: C_51  and  O_126 
REMARK   23  A    between atoms: C_56  and  N_63 
REMARK   24  A    between atoms: C_59  and  S_61 
REMARK       I    between atoms: C_62  and  N_63 
REMARK   25  A    between atoms: O_69  and  C_73 
REMARK   26  A    between atoms: O_70  and  C_74 
REMARK   27  A    between atoms: C_71  and  C_74 
REMARK   28  A    between atoms: C_76  and  O_126 
REMARK   29  A    between atoms: N_77  and  S_88 
REMARK   30  A    between atoms: N_77  and  C_80 
REMARK   31  A    between atoms: C_83  and  N_90 
REMARK   32  A    between atoms: C_86  and  S_88 
REMARK       I    between atoms: C_89  and  N_90 
REMARK   33  A    between atoms: O_96  and  C_100 
REMARK   34  A    between atoms: O_97  and  C_101 
REMARK   35  A    between atoms: C_98  and  C_101 
REMARK   36  A    between atoms: N_104  and  S_115 
REMARK   37  A    between atoms: N_104  and  C_107 
REMARK   38  A    between atoms: C_105  and  O_123 
REMARK   39  A    between atoms: C_110  and  N_117 
REMARK   40  A    between atoms: C_113  and  S_115 
REMARK       I    between atoms: C_116  and  N_117 
ROOT
HETATM    1  C   UNL     1      13.618 -23.773  15.298  1.00  0.00     0.179 C 
HETATM    2  C   UNL     1      15.473 -22.268  14.425  1.00  0.00     0.187 C 
HETATM    3  C   UNL     1      14.046 -22.311  15.006  1.00  0.00     0.186 C 
HETATM    4  C   UNL     1      15.866 -24.008  16.281  1.00  0.00     0.296 C 
HETATM    5  O   UNL     1      14.722 -24.611  15.668  1.00  0.00    -0.349 OA
HETATM    6  C   UNL     1      16.452 -22.829  15.473  1.00  0.00     0.303 C 
ENDROOT
BRANCH   3   7
HETATM    7  O   UNL     1      13.125 -21.536  14.236  1.00  0.00    -0.349 OA
BRANCH   7   8
HETATM    8  C   UNL     1      12.433 -22.189  13.179  1.00  0.00     0.282 C 
HETATM    9  C   UNL     1      12.646 -21.442  11.858  1.00  0.00     0.157 C 
HETATM   10  C   UNL     1      11.713 -22.061  10.803  1.00  0.00     0.173 C 
HETATM   11  C   UNL     1      10.262 -22.031  11.336  1.00  0.00     0.186 C 
HETATM   12  C   UNL     1      10.155 -22.691  12.733  1.00  0.00     0.179 C 
HETATM   13  O   UNL     1      11.089 -22.082  13.616  1.00  0.00    -0.349 OA
BRANCH   9  14
HETATM   14  N   UNL     1      14.065 -21.537  11.461  1.00  0.00    -0.208 NA
HETATM   15  H   UNL     1      14.646 -21.388  12.274  1.00  0.00     0.140 HD
BRANCH  14  16
HETATM   16  S   UNL     1      14.495 -20.271  10.367  1.00  0.00     0.215 S 
HETATM   17  O   UNL     1      15.183 -20.858   8.951  1.00  0.00    -0.211 OA
HETATM   18  O   UNL     1      13.138 -19.348  10.008  1.00  0.00    -0.211 OA
BRANCH  16  19
HETATM   19  C   UNL     1      15.704 -19.223  11.208  1.00  0.00     0.134 C 
HETATM   20  C   UNL     1      16.802 -20.055  11.880  1.00  0.00     0.024 C 
HETATM   21  C   UNL     1      17.842 -19.171  12.573  1.00  0.00     0.018 C 
HETATM   22  C   UNL     1      17.187 -18.266  13.622  1.00  0.00     0.240 C 
HETATM   23  C   UNL     1      16.093 -17.415  12.958  1.00  0.00     0.032 C 
HETATM   24  C   UNL     1      15.056 -18.286  12.239  1.00  0.00     0.018 C 
BRANCH  22  25
HETATM   25  N   UNL     1      18.213 -17.429  14.280  1.00  0.00     0.133 N 
HETATM   26  C   UNL     1      18.211 -17.491  15.758  1.00  0.00     0.352 C 
HETATM   27  O   UNL     1      18.967 -16.540  16.473  1.00  0.00    -0.189 OA
HETATM   28  C   UNL     1      18.522 -18.891  16.299  1.00  0.00     0.085 C 
HETATM   29  H   UNL     1      18.077 -16.469  13.996  1.00  0.00     0.320 HD
ENDBRANCH  22  25
ENDBRANCH  16  19
ENDBRANCH  14  16
ENDBRANCH   9  14
BRANCH  10  30
HETATM   30  O   UNL     1      12.184 -23.368  10.526  1.00  0.00    -0.391 OA
HETATM   31  H   UNL     1      11.714 -23.985  11.093  1.00  0.00     0.210 HD
ENDBRANCH  10  30
BRANCH  11  32
HETATM   32  O   UNL     1       9.310 -22.483  10.367  1.00  0.00    -0.349 OA
BRANCH  32  33
HETATM   33  C   UNL     1       8.571 -21.494   9.659  1.00  0.00     0.281 C 
HETATM   34  O   UNL     1       9.599 -20.836   8.940  1.00  0.00    -0.352 OA
HETATM   35  C   UNL     1       9.110 -19.729   8.200  1.00  0.00     0.150 C 
HETATM   36  C   UNL     1       8.126 -20.231   7.129  1.00  0.00     0.067 C 
HETATM   37  C   UNL     1       6.994 -21.059   7.760  1.00  0.00     0.144 C 
HETATM   38  C   UNL     1       7.556 -22.141   8.703  1.00  0.00     0.155 C 
BRANCH  35  39
HETATM   39  C   UNL     1      10.288 -18.994   7.551  1.00  0.00     0.196 C 
BRANCH  39  40
HETATM   40  O   UNL     1       9.833 -18.220   6.460  1.00  0.00    -0.398 OA
HETATM   41  H   UNL     1       9.412 -17.429   6.803  1.00  0.00     0.209 HD
ENDBRANCH  39  40
ENDBRANCH  35  39
BRANCH  37  42
HETATM   42  O   UNL     1       6.113 -20.213   8.473  1.00  0.00    -0.394 OA
HETATM   43  H   UNL     1       5.664 -20.736   9.143  1.00  0.00     0.210 HD
ENDBRANCH  37  42
BRANCH  38  44
HETATM   44  N   UNL     1       6.486 -22.789   9.488  1.00  0.00    -0.208 NA
HETATM   45  H   UNL     1       6.894 -23.230  10.300  1.00  0.00     0.140 HD
BRANCH  44  46
HETATM   46  S   UNL     1       5.712 -24.071   8.630  1.00  0.00     0.215 S 
HETATM   47  O   UNL     1       6.222 -24.185   7.034  1.00  0.00    -0.211 OA
HETATM   48  O   UNL     1       5.971 -25.527   9.427  1.00  0.00    -0.211 OA
BRANCH  46  49
HETATM   49  C   UNL     1       3.938 -23.708   8.632  1.00  0.00     0.134 C 
HETATM   50  C   UNL     1       3.272 -24.150   7.322  1.00  0.00     0.024 C 
HETATM   51  C   UNL     1       1.769 -23.859   7.317  1.00  0.00     0.018 C 
HETATM   52  C   UNL     1       1.485 -22.369   7.557  1.00  0.00     0.240 C 
HETATM   53  C   UNL     1       2.135 -21.926   8.873  1.00  0.00     0.032 C 
HETATM   54  C   UNL     1       3.639 -22.224   8.895  1.00  0.00     0.018 C 
BRANCH  52  55
HETATM   55  N   UNL     1       0.032 -22.091   7.583  1.00  0.00     0.133 N 
HETATM   56  C   UNL     1      -0.511 -21.611   6.295  1.00  0.00     0.352 C 
HETATM   57  C   UNL     1       0.089 -20.271   5.861  1.00  0.00     0.085 C 
HETATM   58  O   UNL     1      -1.909 -21.577   6.107  1.00  0.00    -0.189 OA
HETATM   59  H   UNL     1      -0.454 -22.936   7.848  1.00  0.00     0.320 HD
ENDBRANCH  52  55
ENDBRANCH  46  49
ENDBRANCH  44  46
ENDBRANCH  38  44
ENDBRANCH  32  33
ENDBRANCH  11  32
BRANCH  12  60
HETATM   60  C   UNL     1       8.769 -22.491  13.359  1.00  0.00     0.198 C 
BRANCH  60  61
HETATM   61  O   UNL     1       8.672 -21.196  13.912  1.00  0.00    -0.398 OA
HETATM   62  H   UNL     1       7.882 -21.154  14.455  1.00  0.00     0.209 HD
ENDBRANCH  60  61
ENDBRANCH  12  60
ENDBRANCH   7   8
ENDBRANCH   3   7
BRANCH   1  63
HETATM   63  C   UNL     1      12.487 -23.820  16.337  1.00  0.00     0.198 C 
BRANCH  63  64
HETATM   64  O   UNL     1      11.235 -23.834  15.685  1.00  0.00    -0.398 OA
HETATM   65  H   UNL     1      10.791 -24.659  15.895  1.00  0.00     0.209 HD
ENDBRANCH  63  64
ENDBRANCH   1  63
BRANCH   2  66
HETATM   66  O   UNL     1      15.587 -23.014  13.226  1.00  0.00    -0.391 OA
HETATM   67  H   UNL     1      15.627 -23.946  13.452  1.00  0.00     0.210 HD
ENDBRANCH   2  66
BRANCH   6  68
HETATM   68  N   UNL     1      17.730 -23.214  14.848  1.00  0.00     0.090 N 
HETATM   69  H   UNL     1      18.084 -22.444  14.298  1.00  0.00     0.313 HD
HETATM   70  H   UNL     1      18.399 -23.452  15.567  1.00  0.00     0.313 HD
ENDBRANCH   6  68
BRANCH   4  71
HETATM   71  O   UNL     1      15.350 -23.566  17.535  1.00  0.00    -0.348 OA
BRANCH  71  72
HETATM   72  C   UNL     1      16.038 -22.502  18.200  1.00  0.00     0.186 C 
HETATM   73  C   UNL     1      15.211 -21.789  19.293  1.00  0.00     0.179 C 
HETATM   74  O   UNL     1      15.938 -20.655  19.739  1.00  0.00    -0.349 OA
HETATM   75  C   UNL     1      17.182 -20.986  20.332  1.00  0.00     0.282 C 
HETATM   76  C   UNL     1      18.129 -21.634  19.308  1.00  0.00     0.157 C 
HETATM   77  C   UNL     1      17.444 -22.882  18.717  1.00  0.00     0.173 C 
BRANCH  73  78
HETATM   78  C   UNL     1      13.866 -21.287  18.752  1.00  0.00     0.198 C 
BRANCH  78  79
HETATM   79  O   UNL     1      12.988 -20.999  19.820  1.00  0.00    -0.398 OA
HETATM   80  H   UNL     1      13.272 -21.499  20.589  1.00  0.00     0.209 HD
ENDBRANCH  78  79
ENDBRANCH  73  78
BRANCH  75  81
HETATM   81  O   UNL     1      17.653 -19.700  20.717  1.00  0.00    -0.349 OA
BRANCH  81  82
HETATM   82  C   UNL     1      16.793 -18.578  20.497  1.00  0.00     0.186 C 
HETATM   83  C   UNL     1      16.244 -17.883  21.767  1.00  0.00     0.176 C 
HETATM   84  O   UNL     1      15.338 -16.846  21.396  1.00  0.00    -0.379 OA
HETATM   85  C   UNL     1      15.889 -15.856  20.538  1.00  0.00     0.191 C 
HETATM   86  C   UNL     1      16.347 -16.482  19.210  1.00  0.00     0.126 C 
HETATM   87  C   UNL     1      17.404 -17.559  19.512  1.00  0.00     0.170 C 
BRANCH  83  88
HETATM   88  C   UNL     1      15.455 -18.863  22.647  1.00  0.00     0.198 C 
BRANCH  88  89
HETATM   89  O   UNL     1      14.357 -19.384  21.930  1.00  0.00    -0.398 OA
HETATM   90  H   UNL     1      13.556 -18.973  22.260  1.00  0.00     0.209 HD
ENDBRANCH  88  89
ENDBRANCH  83  88
BRANCH  86  91
HETATM   91  N   UNL     1      16.854 -15.435  18.297  1.00  0.00    -0.210 NA
HETATM   92  H   UNL     1      17.230 -14.679  18.850  1.00  0.00     0.140 HD
BRANCH  91  93
HETATM   93  S   UNL     1      15.573 -14.727  17.375  1.00  0.00     0.215 S 
HETATM   94  O   UNL     1      15.513 -15.304  15.799  1.00  0.00    -0.211 OA
HETATM   95  O   UNL     1      14.093 -14.988  18.127  1.00  0.00    -0.211 OA
BRANCH  93  96
HETATM   96  C   UNL     1      15.848 -12.941  17.298  1.00  0.00     0.134 C 
HETATM   97  C   UNL     1      16.715 -12.435  18.459  1.00  0.00     0.024 C 
HETATM   98  C   UNL     1      16.961 -10.927  18.352  1.00  0.00     0.018 C 
HETATM   99  C   UNL     1      15.644 -10.136  18.321  1.00  0.00     0.240 C 
HETATM  100  C   UNL     1      14.774 -10.634  17.160  1.00  0.00     0.032 C 
HETATM  101  C   UNL     1      14.534 -12.147  17.239  1.00  0.00     0.018 C 
BRANCH  99 102
HETATM  102  N   UNL     1      15.890  -8.685  18.187  1.00  0.00     0.133 N 
HETATM  103  C   UNL     1      15.616  -7.923  19.423  1.00  0.00     0.352 C 
HETATM  104  C   UNL     1      14.132  -7.936  19.795  1.00  0.00     0.085 C 
HETATM  105  O   UNL     1      16.113  -6.608  19.544  1.00  0.00    -0.189 OA
HETATM  106  H   UNL     1      16.853  -8.543  17.919  1.00  0.00     0.320 HD
ENDBRANCH  99 102
ENDBRANCH  93  96
ENDBRANCH  91  93
ENDBRANCH  86  91
BRANCH  87 107
HETATM  107  O   UNL     1      18.564 -16.920  20.010  1.00  0.00    -0.391 OA
HETATM  108  H   UNL     1      19.093 -16.627  19.264  1.00  0.00     0.210 HD
ENDBRANCH  87 107
ENDBRANCH  81  82
ENDBRANCH  75  81
BRANCH  76 109
HETATM  109  N   UNL     1      19.402 -21.983  19.968  1.00  0.00    -0.208 NA
HETATM  110  H   UNL     1      19.348 -21.736  20.946  1.00  0.00     0.140 HD
BRANCH 109 111
HETATM  111  S   UNL     1      20.735 -21.074  19.361  1.00  0.00     0.215 S 
HETATM  112  O   UNL     1      20.570 -19.422  19.626  1.00  0.00    -0.211 OA
HETATM  113  O   UNL     1      22.153 -21.636  20.064  1.00  0.00    -0.211 OA
BRANCH 111 114
HETATM  114  C   UNL     1      20.801 -21.382  17.579  1.00  0.00     0.134 C 
HETATM  115  C   UNL     1      21.163 -22.840  17.269  1.00  0.00     0.024 C 
HETATM  116  C   UNL     1      21.220 -23.106  15.762  1.00  0.00     0.018 C 
HETATM  117  C   UNL     1      22.226 -22.182  15.068  1.00  0.00     0.240 C 
HETATM  118  C   UNL     1      21.870 -20.715  15.356  1.00  0.00     0.032 C 
HETATM  119  C   UNL     1      21.777 -20.437  16.861  1.00  0.00     0.018 C 
BRANCH 117 120
HETATM  120  N   UNL     1      22.245 -22.456  13.616  1.00  0.00     0.133 N 
HETATM  121  C   UNL     1      23.550 -22.937  13.118  1.00  0.00     0.352 C 
HETATM  122  C   UNL     1      23.809 -24.394  13.516  1.00  0.00     0.085 C 
HETATM  123  O   UNL     1      23.863 -22.770  11.752  1.00  0.00    -0.189 OA
HETATM  124  H   UNL     1      21.994 -21.609  13.126  1.00  0.00     0.320 HD
ENDBRANCH 117 120
ENDBRANCH 111 114
ENDBRANCH 109 111
ENDBRANCH  76 109
BRANCH  77 125
HETATM  125  O   UNL     1      17.418 -23.874  19.727  1.00  0.00    -0.391 OA
HETATM  126  H   UNL     1      16.510 -23.987  20.017  1.00  0.00     0.210 HD
ENDBRANCH  77 125
ENDBRANCH  71  72
ENDBRANCH   4  71
TORSDOF 40
ENDMDL
MODEL 5
REMARK VINA RESULT:      -7.5     25.417     30.906
REMARK WARNING: 32 MAX_TORS EXCEEDED!!!
REMARK  40 active torsions:
REMARK  status: ('A' for Active; 'I' for Inactive)
REMARK    1  A    between atoms: C_1  and  O_123 
REMARK    2  A    between atoms: C_2  and  C_6 
REMARK    3  A    between atoms: C_3  and  O_10 
REMARK    4  A    between atoms: C_4  and  N_12 
REMARK    5  A    between atoms: C_5  and  O_124 
REMARK    6  A    between atoms: C_6  and  O_7 
REMARK    7  A    between atoms: N_12  and  S_13 
REMARK    8  A    between atoms: S_13  and  C_17 
REMARK    9  A    between atoms: C_20  and  N_23 
REMARK       I    between atoms: N_23  and  C_24 
REMARK   10  A    between atoms: O_29  and  C_33 
REMARK   11  A    between atoms: O_30  and  C_34 
REMARK   12  A    between atoms: C_31  and  C_34 
REMARK   13  A    between atoms: C_36  and  O_124 
REMARK   14  A    between atoms: N_37  and  C_40 
REMARK   15  A    between atoms: C_38  and  O_125 
REMARK   16  A    between atoms: O_42  and  C_46 
REMARK   17  A    between atoms: O_43  and  C_47 
REMARK   18  A    between atoms: C_44  and  C_47 
REMARK   19  A    between atoms: C_49  and  O_125 
REMARK   20  A    between atoms: N_50  and  S_61 
REMARK   21  A    between atoms: N_50  and  C_53 
REMARK   22  A    between atoms: C_51  and  O_126 
REMARK   23  A    between atoms: C_56  and  N_63 
REMARK   24  A    between atoms: C_59  and  S_61 
REMARK       I    between atoms: C_62  and  N_63 
REMARK   25  A    between atoms: O_69  and  C_73 
REMARK   26  A    between atoms: O_70  and  C_74 
REMARK   27  A    between atoms: C_71  and  C_74 
REMARK   28  A    between atoms: C_76  and  O_126 
REMARK   29  A    between atoms: N_77  and  S_88 
REMARK   30  A    between atoms: N_77  and  C_80 
REMARK   31  A    between atoms: C_83  and  N_90 
REMARK   32  A    between atoms: C_86  and  S_88 
REMARK       I    between atoms: C_89  and  N_90 
REMARK   33  A    between atoms: O_96  and  C_100 
REMARK   34  A    between atoms: O_97  and  C_101 
REMARK   35  A    between atoms: C_98  and  C_101 
REMARK   36  A    between atoms: N_104  and  S_115 
REMARK   37  A    between atoms: N_104  and  C_107 
REMARK   38  A    between atoms: C_105  and  O_123 
REMARK   39  A    between atoms: C_110  and  N_117 
REMARK   40  A    between atoms: C_113  and  S_115 
REMARK       I    between atoms: C_116  and  N_117 
ROOT
HETATM    1  C   UNL     1      -5.628  -3.540   5.634  1.00  0.00     0.179 C 
HETATM    2  C   UNL     1      -7.159  -3.100   3.652  1.00  0.00     0.187 C 
HETATM    3  C   UNL     1      -7.091  -3.301   5.179  1.00  0.00     0.186 C 
HETATM    4  C   UNL     1      -5.081  -1.660   4.138  1.00  0.00     0.296 C 
HETATM    5  O   UNL     1      -4.672  -2.852   4.816  1.00  0.00    -0.349 OA
HETATM    6  C   UNL     1      -6.354  -1.839   3.283  1.00  0.00     0.303 C 
ENDROOT
BRANCH   3   7
HETATM    7  O   UNL     1      -8.049  -4.256   5.641  1.00  0.00    -0.349 OA
BRANCH   7   8
HETATM    8  C   UNL     1      -8.736  -3.971   6.852  1.00  0.00     0.282 C 
HETATM    9  C   UNL     1      -9.292  -5.260   7.469  1.00  0.00     0.157 C 
HETATM   10  C   UNL     1     -10.197  -4.872   8.651  1.00  0.00     0.173 C 
HETATM   11  C   UNL     1     -11.271  -3.875   8.155  1.00  0.00     0.186 C 
HETATM   12  C   UNL     1     -10.633  -2.665   7.430  1.00  0.00     0.179 C 
HETATM   13  O   UNL     1      -9.781  -3.132   6.392  1.00  0.00    -0.349 OA
BRANCH   9  14
HETATM   14  N   UNL     1      -8.174  -6.126   7.893  1.00  0.00    -0.208 NA
HETATM   15  H   UNL     1      -7.328  -5.823   7.431  1.00  0.00     0.140 HD
BRANCH  14  16
HETATM   16  S   UNL     1      -8.412  -7.755   7.370  1.00  0.00     0.215 S 
HETATM   17  O   UNL     1      -8.350  -8.849   8.643  1.00  0.00    -0.211 OA
HETATM   18  O   UNL     1      -9.883  -7.883   6.570  1.00  0.00    -0.211 OA
BRANCH  16  19
HETATM   19  C   UNL     1      -7.083  -8.143   6.206  1.00  0.00     0.134 C 
HETATM   20  C   UNL     1      -6.092  -6.981   6.074  1.00  0.00     0.024 C 
HETATM   21  C   UNL     1      -4.952  -7.314   5.108  1.00  0.00     0.018 C 
HETATM   22  C   UNL     1      -5.490  -7.674   3.720  1.00  0.00     0.240 C 
HETATM   23  C   UNL     1      -6.475  -8.848   3.837  1.00  0.00     0.032 C 
HETATM   24  C   UNL     1      -7.611  -8.539   4.819  1.00  0.00     0.018 C 
BRANCH  22  25
HETATM   25  N   UNL     1      -4.369  -7.984   2.807  1.00  0.00     0.133 N 
HETATM   26  C   UNL     1      -4.751  -8.136   1.385  1.00  0.00     0.352 C 
HETATM   27  O   UNL     1      -3.809  -8.685   0.490  1.00  0.00    -0.189 OA
HETATM   28  C   UNL     1      -5.331  -6.852   0.781  1.00  0.00     0.085 C 
HETATM   29  H   UNL     1      -3.927  -8.839   3.116  1.00  0.00     0.320 HD
ENDBRANCH  22  25
ENDBRANCH  16  19
ENDBRANCH  14  16
ENDBRANCH   9  14
BRANCH  10  30
HETATM   30  O   UNL     1      -9.370  -4.345   9.671  1.00  0.00    -0.391 OA
HETATM   31  H   UNL     1      -9.930  -3.932  10.333  1.00  0.00     0.210 HD
ENDBRANCH  10  30
BRANCH  11  32
HETATM   32  O   UNL     1     -12.230  -3.552   9.167  1.00  0.00    -0.349 OA
BRANCH  32  33
HETATM   33  C   UNL     1     -11.876  -2.551  10.114  1.00  0.00     0.281 C 
HETATM   34  O   UNL     1     -12.709  -1.477   9.712  1.00  0.00    -0.352 OA
HETATM   35  C   UNL     1     -12.475  -0.304  10.476  1.00  0.00     0.150 C 
HETATM   36  C   UNL     1     -12.847  -0.575  11.945  1.00  0.00     0.067 C 
HETATM   37  C   UNL     1     -12.085  -1.792  12.494  1.00  0.00     0.144 C 
HETATM   38  C   UNL     1     -12.210  -3.001  11.545  1.00  0.00     0.155 C 
BRANCH  35  39
HETATM   39  C   UNL     1     -13.315   0.846   9.909  1.00  0.00     0.196 C 
BRANCH  39  40
HETATM   40  O   UNL     1     -13.776   0.515   8.616  1.00  0.00    -0.398 OA
HETATM   41  H   UNL     1     -13.740   1.302   8.068  1.00  0.00     0.209 HD
ENDBRANCH  39  40
ENDBRANCH  35  39
BRANCH  37  42
HETATM   42  O   UNL     1     -10.721  -1.469  12.680  1.00  0.00    -0.394 OA
HETATM   43  H   UNL     1     -10.656  -0.537  12.900  1.00  0.00     0.210 HD
ENDBRANCH  37  42
BRANCH  38  44
HETATM   44  N   UNL     1     -11.304  -4.099  11.939  1.00  0.00    -0.208 NA
HETATM   45  H   UNL     1     -10.709  -4.330  11.157  1.00  0.00     0.140 HD
BRANCH  44  46
HETATM   46  S   UNL     1     -12.146  -5.561  12.304  1.00  0.00     0.215 S 
HETATM   47  O   UNL     1     -13.768  -5.501  11.873  1.00  0.00    -0.211 OA
HETATM   48  O   UNL     1     -11.391  -6.856  11.545  1.00  0.00    -0.211 OA
BRANCH  46  49
HETATM   49  C   UNL     1     -12.045  -5.791  14.097  1.00  0.00     0.134 C 
HETATM   50  C   UNL     1     -13.367  -6.318  14.671  1.00  0.00     0.024 C 
HETATM   51  C   UNL     1     -13.289  -6.528  16.186  1.00  0.00     0.018 C 
HETATM   52  C   UNL     1     -12.896  -5.234  16.913  1.00  0.00     0.240 C 
HETATM   53  C   UNL     1     -11.567  -4.712  16.354  1.00  0.00     0.032 C 
HETATM   54  C   UNL     1     -11.628  -4.509  14.834  1.00  0.00     0.018 C 
BRANCH  52  55
HETATM   55  N   UNL     1     -12.790  -5.443  18.374  1.00  0.00     0.133 N 
HETATM   56  C   UNL     1     -13.994  -5.034  19.128  1.00  0.00     0.352 C 
HETATM   57  C   UNL     1     -14.284  -3.535  19.014  1.00  0.00     0.085 C 
HETATM   58  O   UNL     1     -14.132  -5.432  20.474  1.00  0.00    -0.189 OA
HETATM   59  H   UNL     1     -12.613  -6.422  18.549  1.00  0.00     0.320 HD
ENDBRANCH  52  55
ENDBRANCH  46  49
ENDBRANCH  44  46
ENDBRANCH  38  44
ENDBRANCH  32  33
ENDBRANCH  11  32
BRANCH  12  60
HETATM   60  C   UNL     1     -11.688  -1.774   6.761  1.00  0.00     0.198 C 
BRANCH  60  61
HETATM   61  O   UNL     1     -11.460  -0.422   7.096  1.00  0.00    -0.398 OA
HETATM   62  H   UNL     1     -12.210   0.097   6.799  1.00  0.00     0.209 HD
ENDBRANCH  60  61
ENDBRANCH  12  60
ENDBRANCH   7   8
ENDBRANCH   3   7
BRANCH   1  63
HETATM   63  C   UNL     1      -5.453  -3.210   7.124  1.00  0.00     0.198 C 
BRANCH  63  64
HETATM   64  O   UNL     1      -4.113  -2.850   7.383  1.00  0.00    -0.398 OA
HETATM   65  H   UNL     1      -3.546  -3.579   7.121  1.00  0.00     0.209 HD
ENDBRANCH  63  64
ENDBRANCH   1  63
BRANCH   2  66
HETATM   66  O   UNL     1      -6.645  -4.211   2.940  1.00  0.00    -0.391 OA
HETATM   67  H   UNL     1      -6.689  -4.017   2.001  1.00  0.00     0.210 HD
ENDBRANCH   2  66
BRANCH   6  68
HETATM   68  N   UNL     1      -6.019  -1.829   1.847  1.00  0.00     0.090 N 
HETATM   69  H   UNL     1      -5.029  -1.666   1.732  1.00  0.00     0.313 HD
HETATM   70  H   UNL     1      -6.266  -2.719   1.438  1.00  0.00     0.313 HD
ENDBRANCH   6  68
BRANCH   4  71
HETATM   71  O   UNL     1      -5.309  -0.753   5.216  1.00  0.00    -0.348 OA
BRANCH  71  72
HETATM   72  C   UNL     1      -5.785   0.557   4.894  1.00  0.00     0.186 C 
HETATM   73  C   UNL     1      -6.813   1.130   5.896  1.00  0.00     0.179 C 
HETATM   74  O   UNL     1      -7.331   2.340   5.366  1.00  0.00    -0.349 OA
HETATM   75  C   UNL     1      -6.342   3.342   5.192  1.00  0.00     0.282 C 
HETATM   76  C   UNL     1      -5.300   2.915   4.145  1.00  0.00     0.157 C 
HETATM   77  C   UNL     1      -4.668   1.581   4.589  1.00  0.00     0.173 C 
BRANCH  73  78
HETATM   78  C   UNL     1      -7.998   0.176   6.102  1.00  0.00     0.198 C 
BRANCH  78  79
HETATM   79  O   UNL     1      -7.779  -0.633   7.239  1.00  0.00    -0.398 OA
HETATM   80  H   UNL     1      -6.833  -0.725   7.368  1.00  0.00     0.209 HD
ENDBRANCH  78  79
ENDBRANCH  73  78
BRANCH  75  81
HETATM   81  O   UNL     1      -7.132   4.424   4.711  1.00  0.00    -0.349 OA
BRANCH  81  82
HETATM   82  C   UNL     1      -7.264   5.579   5.545  1.00  0.00     0.186 C 
HETATM   83  C   UNL     1      -7.365   5.312   7.066  1.00  0.00     0.176 C 
HETATM   84  O   UNL     1      -7.580   6.540   7.759  1.00  0.00    -0.379 OA
HETATM   85  C   UNL     1      -6.583   7.528   7.536  1.00  0.00     0.191 C 
HETATM   86  C   UNL     1      -6.522   7.912   6.049  1.00  0.00     0.126 C 
HETATM   87  C   UNL     1      -6.200   6.651   5.227  1.00  0.00     0.170 C 
BRANCH  83  88
HETATM   88  C   UNL     1      -8.558   4.404   7.399  1.00  0.00     0.198 C 
BRANCH  88  89
HETATM   89  O   UNL     1      -8.135   3.319   8.197  1.00  0.00    -0.398 OA
HETATM   90  H   UNL     1      -7.474   3.638   8.816  1.00  0.00     0.209 HD
ENDBRANCH  88  89
ENDBRANCH  83  88
BRANCH  86  91
HETATM   91  N   UNL     1      -5.532   8.990   5.837  1.00  0.00    -0.210 NA
HETATM   92  H   UNL     1      -5.539   9.598   6.643  1.00  0.00     0.140 HD
BRANCH  91  93
HETATM   93  S   UNL     1      -5.976  10.003   4.505  1.00  0.00     0.215 S 
HETATM   94  O   UNL     1      -7.488   9.624   3.880  1.00  0.00    -0.211 OA
HETATM   95  O   UNL     1      -5.942  11.620   4.959  1.00  0.00    -0.211 OA
BRANCH  93  96
HETATM   96  C   UNL     1      -4.760   9.772   3.186  1.00  0.00     0.134 C 
HETATM   97  C   UNL     1      -3.379   9.381   3.729  1.00  0.00     0.024 C 
HETATM   98  C   UNL     1      -2.377   9.159   2.592  1.00  0.00     0.018 C 
HETATM   99  C   UNL     1      -2.240  10.404   1.703  1.00  0.00     0.240 C 
HETATM  100  C   UNL     1      -3.616  10.797   1.153  1.00  0.00     0.032 C 
HETATM  101  C   UNL     1      -4.639  11.004   2.278  1.00  0.00     0.018 C 
BRANCH  99 102
HETATM  102  N   UNL     1      -1.295  10.170   0.591  1.00  0.00     0.133 N 
HETATM  103  C   UNL     1       0.077  10.641   0.872  1.00  0.00     0.352 C 
HETATM  104  C   UNL     1       0.151  12.164   1.005  1.00  0.00     0.085 C 
HETATM  105  O   UNL     1       1.138  10.195   0.056  1.00  0.00    -0.189 OA
HETATM  106  H   UNL     1      -1.269   9.181   0.390  1.00  0.00     0.320 HD
ENDBRANCH  99 102
ENDBRANCH  93  96
ENDBRANCH  91  93
ENDBRANCH  86  91
BRANCH  87 107
HETATM  107  O   UNL     1      -4.880   6.244   5.532  1.00  0.00    -0.391 OA
HETATM  108  H   UNL     1      -4.573   6.750   6.289  1.00  0.00     0.210 HD
ENDBRANCH  87 107
ENDBRANCH  81  82
ENDBRANCH  75  81
BRANCH  76 109
HETATM  109  N   UNL     1      -4.279   3.972   4.010  1.00  0.00    -0.208 NA
HETATM  110  H   UNL     1      -4.677   4.857   4.291  1.00  0.00     0.140 HD
BRANCH 109 111
HETATM  111  S   UNL     1      -3.790   4.214   2.374  1.00  0.00     0.215 S 
HETATM  112  O   UNL     1      -4.992   3.815   1.269  1.00  0.00    -0.211 OA
HETATM  113  O   UNL     1      -3.320   5.814   2.169  1.00  0.00    -0.211 OA
BRANCH 111 114
HETATM  114  C   UNL     1      -2.358   3.143   2.100  1.00  0.00     0.134 C 
HETATM  115  C   UNL     1      -1.215   3.892   1.403  1.00  0.00     0.024 C 
HETATM  116  C   UNL     1       0.000   2.988   1.169  1.00  0.00     0.018 C 
HETATM  117  C   UNL     1      -0.371   1.756   0.337  1.00  0.00     0.240 C 
HETATM  118  C   UNL     1      -1.505   0.985   1.028  1.00  0.00     0.032 C 
HETATM  119  C   UNL     1      -2.720   1.881   1.300  1.00  0.00     0.018 C 
BRANCH 117 120
HETATM  120  N   UNL     1       0.820   0.903   0.143  1.00  0.00     0.133 N 
HETATM  121  C   UNL     1       1.162   0.672  -1.276  1.00  0.00     0.352 C 
HETATM  122  C   UNL     1       1.800   1.910  -1.915  1.00  0.00     0.085 C 
HETATM  123  O   UNL     1       1.922  -0.467  -1.618  1.00  0.00    -0.189 OA
HETATM  124  H   UNL     1       0.654   0.014   0.593  1.00  0.00     0.320 HD
ENDBRANCH 117 120
ENDBRANCH 111 114
ENDBRANCH 109 111
ENDBRANCH  76 109
BRANCH  77 125
HETATM  125  O   UNL     1      -3.838   1.850   5.704  1.00  0.00    -0.391 OA
HETATM  126  H   UNL     1      -4.357   2.318   6.361  1.00  0.00     0.210 HD
ENDBRANCH  77 125
ENDBRANCH  71  72
ENDBRANCH   4  71
TORSDOF 40
ENDMDL
MODEL 6
REMARK VINA RESULT:      -7.4     12.694     21.481
REMARK WARNING: 32 MAX_TORS EXCEEDED!!!
REMARK  40 active torsions:
REMARK  status: ('A' for Active; 'I' for Inactive)
REMARK    1  A    between atoms: C_1  and  O_123 
REMARK    2  A    between atoms: C_2  and  C_6 
REMARK    3  A    between atoms: C_3  and  O_10 
REMARK    4  A    between atoms: C_4  and  N_12 
REMARK    5  A    between atoms: C_5  and  O_124 
REMARK    6  A    between atoms: C_6  and  O_7 
REMARK    7  A    between atoms: N_12  and  S_13 
REMARK    8  A    between atoms: S_13  and  C_17 
REMARK    9  A    between atoms: C_20  and  N_23 
REMARK       I    between atoms: N_23  and  C_24 
REMARK   10  A    between atoms: O_29  and  C_33 
REMARK   11  A    between atoms: O_30  and  C_34 
REMARK   12  A    between atoms: C_31  and  C_34 
REMARK   13  A    between atoms: C_36  and  O_124 
REMARK   14  A    between atoms: N_37  and  C_40 
REMARK   15  A    between atoms: C_38  and  O_125 
REMARK   16  A    between atoms: O_42  and  C_46 
REMARK   17  A    between atoms: O_43  and  C_47 
REMARK   18  A    between atoms: C_44  and  C_47 
REMARK   19  A    between atoms: C_49  and  O_125 
REMARK   20  A    between atoms: N_50  and  S_61 
REMARK   21  A    between atoms: N_50  and  C_53 
REMARK   22  A    between atoms: C_51  and  O_126 
REMARK   23  A    between atoms: C_56  and  N_63 
REMARK   24  A    between atoms: C_59  and  S_61 
REMARK       I    between atoms: C_62  and  N_63 
REMARK   25  A    between atoms: O_69  and  C_73 
REMARK   26  A    between atoms: O_70  and  C_74 
REMARK   27  A    between atoms: C_71  and  C_74 
REMARK   28  A    between atoms: C_76  and  O_126 
REMARK   29  A    between atoms: N_77  and  S_88 
REMARK   30  A    between atoms: N_77  and  C_80 
REMARK   31  A    between atoms: C_83  and  N_90 
REMARK   32  A    between atoms: C_86  and  S_88 
REMARK       I    between atoms: C_89  and  N_90 
REMARK   33  A    between atoms: O_96  and  C_100 
REMARK   34  A    between atoms: O_97  and  C_101 
REMARK   35  A    between atoms: C_98  and  C_101 
REMARK   36  A    between atoms: N_104  and  S_115 
REMARK   37  A    between atoms: N_104  and  C_107 
REMARK   38  A    between atoms: C_105  and  O_123 
REMARK   39  A    between atoms: C_110  and  N_117 
REMARK   40  A    between atoms: C_113  and  S_115 
REMARK       I    between atoms: C_116  and  N_117 
ROOT
HETATM    1  C   UNL     1       1.100 -19.240  -1.816  1.00  0.00     0.179 C 
HETATM    2  C   UNL     1       0.433 -18.198   0.406  1.00  0.00     0.187 C 
HETATM    3  C   UNL     1       1.599 -18.770  -0.425  1.00  0.00     0.186 C 
HETATM    4  C   UNL     1      -0.134 -17.107  -1.856  1.00  0.00     0.296 C 
HETATM    5  O   UNL     1      -0.000 -18.459  -2.304  1.00  0.00    -0.349 OA
HETATM    6  C   UNL     1      -0.130 -16.960  -0.319  1.00  0.00     0.303 C 
ENDROOT
BRANCH   3   7
HETATM    7  O   UNL     1       2.371 -19.721   0.311  1.00  0.00    -0.349 OA
BRANCH   7   8
HETATM    8  C   UNL     1       2.936 -19.300   1.546  1.00  0.00     0.282 C 
HETATM    9  C   UNL     1       4.246 -20.047   1.818  1.00  0.00     0.157 C 
HETATM   10  C   UNL     1       4.699 -19.714   3.250  1.00  0.00     0.173 C 
HETATM   11  C   UNL     1       3.549 -20.046   4.230  1.00  0.00     0.186 C 
HETATM   12  C   UNL     1       2.228 -19.356   3.812  1.00  0.00     0.179 C 
HETATM   13  O   UNL     1       1.926 -19.688   2.462  1.00  0.00    -0.349 OA
BRANCH   9  14
HETATM   14  N   UNL     1       5.256 -19.651   0.816  1.00  0.00    -0.208 NA
HETATM   15  H   UNL     1       4.801 -19.141   0.072  1.00  0.00     0.140 HD
BRANCH  14  16
HETATM   16  S   UNL     1       5.954 -21.034   0.051  1.00  0.00     0.215 S 
HETATM   17  O   UNL     1       7.543 -20.767  -0.423  1.00  0.00    -0.211 OA
HETATM   18  O   UNL     1       5.875 -22.354   1.087  1.00  0.00    -0.211 OA
BRANCH  16  19
HETATM   19  C   UNL     1       4.962 -21.390  -1.418  1.00  0.00     0.134 C 
HETATM   20  C   UNL     1       4.000 -22.559  -1.180  1.00  0.00     0.024 C 
HETATM   21  C   UNL     1       3.140 -22.849  -2.413  1.00  0.00     0.018 C 
HETATM   22  C   UNL     1       4.013 -23.159  -3.634  1.00  0.00     0.240 C 
HETATM   23  C   UNL     1       4.972 -21.988  -3.893  1.00  0.00     0.032 C 
HETATM   24  C   UNL     1       5.825 -21.669  -2.659  1.00  0.00     0.018 C 
BRANCH  22  25
HETATM   25  N   UNL     1       3.158 -23.441  -4.808  1.00  0.00     0.133 N 
HETATM   26  C   UNL     1       3.888 -23.896  -6.011  1.00  0.00     0.352 C 
HETATM   27  O   UNL     1       3.200 -23.937  -7.242  1.00  0.00    -0.189 OA
HETATM   28  C   UNL     1       4.621 -25.227  -5.801  1.00  0.00     0.085 C 
HETATM   29  H   UNL     1       2.641 -22.605  -5.040  1.00  0.00     0.320 HD
ENDBRANCH  22  25
ENDBRANCH  16  19
ENDBRANCH  14  16
ENDBRANCH   9  14
BRANCH  10  30
HETATM   30  O   UNL     1       5.080 -18.350   3.274  1.00  0.00    -0.391 OA
HETATM   31  H   UNL     1       5.600 -18.167   2.488  1.00  0.00     0.210 HD
ENDBRANCH  10  30
BRANCH  11  32
HETATM   32  O   UNL     1       3.927 -19.876   5.600  1.00  0.00    -0.349 OA
BRANCH  32  33
HETATM   33  C   UNL     1       4.924 -20.746   6.121  1.00  0.00     0.281 C 
HETATM   34  O   UNL     1       5.892 -19.819   6.583  1.00  0.00    -0.352 OA
HETATM   35  C   UNL     1       7.051 -20.464   7.087  1.00  0.00     0.150 C 
HETATM   36  C   UNL     1       6.669 -21.298   8.323  1.00  0.00     0.067 C 
HETATM   37  C   UNL     1       5.543 -22.292   7.994  1.00  0.00     0.144 C 
HETATM   38  C   UNL     1       4.371 -21.589   7.281  1.00  0.00     0.155 C 
BRANCH  35  39
HETATM   39  C   UNL     1       8.100 -19.407   7.451  1.00  0.00     0.196 C 
BRANCH  39  40
HETATM   40  O   UNL     1       7.644 -18.124   7.075  1.00  0.00    -0.398 OA
HETATM   41  H   UNL     1       7.104 -17.772   7.786  1.00  0.00     0.209 HD
ENDBRANCH  39  40
ENDBRANCH  35  39
BRANCH  37  42
HETATM   42  O   UNL     1       6.040 -23.338   7.182  1.00  0.00    -0.394 OA
HETATM   43  H   UNL     1       5.899 -23.103   6.262  1.00  0.00     0.210 HD
ENDBRANCH  37  42
BRANCH  38  44
HETATM   44  N   UNL     1       3.390 -22.561   6.757  1.00  0.00    -0.208 NA
HETATM   45  H   UNL     1       2.856 -22.125   6.020  1.00  0.00     0.140 HD
BRANCH  44  46
HETATM   46  S   UNL     1       2.220 -23.030   7.936  1.00  0.00     0.215 S 
HETATM   47  O   UNL     1       2.418 -24.616   8.452  1.00  0.00    -0.211 OA
HETATM   48  O   UNL     1       2.281 -21.982   9.247  1.00  0.00    -0.211 OA
BRANCH  46  49
HETATM   49  C   UNL     1       0.596 -22.890   7.147  1.00  0.00     0.134 C 
HETATM   50  C   UNL     1      -0.078 -21.552   7.482  1.00  0.00     0.024 C 
HETATM   51  C   UNL     1      -1.448 -21.418   6.810  1.00  0.00     0.018 C 
HETATM   52  C   UNL     1      -2.381 -22.572   7.201  1.00  0.00     0.240 C 
HETATM   53  C   UNL     1      -1.719 -23.911   6.854  1.00  0.00     0.032 C 
HETATM   54  C   UNL     1      -0.340 -24.053   7.511  1.00  0.00     0.018 C 
BRANCH  52  55
HETATM   55  N   UNL     1      -3.694 -22.461   6.528  1.00  0.00     0.133 N 
HETATM   56  C   UNL     1      -4.842 -22.403   7.458  1.00  0.00     0.352 C 
HETATM   57  C   UNL     1      -4.991 -23.676   8.295  1.00  0.00     0.085 C 
HETATM   58  O   UNL     1      -6.107 -22.020   6.966  1.00  0.00    -0.189 OA
HETATM   59  H   UNL     1      -3.695 -21.628   5.957  1.00  0.00     0.320 HD
ENDBRANCH  52  55
ENDBRANCH  46  49
ENDBRANCH  44  46
ENDBRANCH  38  44
ENDBRANCH  32  33
ENDBRANCH  11  32
BRANCH  12  60
HETATM   60  C   UNL     1       1.037 -19.835   4.654  1.00  0.00     0.198 C 
BRANCH  60  61
HETATM   61  O   UNL     1      -0.098 -19.043   4.377  1.00  0.00    -0.398 OA
HETATM   62  H   UNL     1      -0.046 -18.241   4.901  1.00  0.00     0.209 HD
ENDBRANCH  60  61
ENDBRANCH  12  60
ENDBRANCH   7   8
ENDBRANCH   3   7
BRANCH   1  63
HETATM   63  C   UNL     1       2.256 -19.299  -2.826  1.00  0.00     0.198 C 
BRANCH  63  64
HETATM   64  O   UNL     1       3.407 -18.697  -2.275  1.00  0.00    -0.398 OA
HETATM   65  H   UNL     1       3.995 -18.450  -2.993  1.00  0.00     0.209 HD
ENDBRANCH  63  64
ENDBRANCH   1  63
BRANCH   2  66
HETATM   66  O   UNL     1      -0.604 -19.143   0.599  1.00  0.00    -0.391 OA
HETATM   67  H   UNL     1      -0.674 -19.683  -0.191  1.00  0.00     0.210 HD
ENDBRANCH   2  66
BRANCH   6  68
HETATM   68  N   UNL     1      -1.480 -16.631   0.174  1.00  0.00     0.090 N 
HETATM   69  H   UNL     1      -2.169 -16.922  -0.506  1.00  0.00     0.313 HD
HETATM   70  H   UNL     1      -1.645 -17.108   1.048  1.00  0.00     0.313 HD
ENDBRANCH   6  68
BRANCH   4  71
HETATM   71  O   UNL     1       1.005 -16.474  -2.436  1.00  0.00    -0.348 OA
BRANCH  71  72
HETATM   72  C   UNL     1       1.363 -15.176  -1.953  1.00  0.00     0.186 C 
HETATM   73  C   UNL     1       2.674 -14.610  -2.544  1.00  0.00     0.179 C 
HETATM   74  O   UNL     1       3.000 -13.414  -1.852  1.00  0.00    -0.349 OA
HETATM   75  C   UNL     1       2.024 -12.398  -2.003  1.00  0.00     0.282 C 
HETATM   76  C   UNL     1       0.686 -12.818  -1.372  1.00  0.00     0.157 C 
HETATM   77  C   UNL     1       0.221 -14.136  -2.022  1.00  0.00     0.173 C 
BRANCH  73  78
HETATM   78  C   UNL     1       3.847 -15.582  -2.357  1.00  0.00     0.198 C 
BRANCH  78  79
HETATM   79  O   UNL     1       3.758 -16.217  -1.099  1.00  0.00    -0.398 OA
HETATM   80  H   UNL     1       3.897 -17.158  -1.223  1.00  0.00     0.209 HD
ENDBRANCH  78  79
ENDBRANCH  73  78
BRANCH  75  81
HETATM   81  O   UNL     1       2.620 -11.335  -1.269  1.00  0.00    -0.349 OA
BRANCH  81  82
HETATM   82  C   UNL     1       3.529 -10.471  -1.958  1.00  0.00     0.186 C 
HETATM   83  C   UNL     1       3.537  -8.992  -1.503  1.00  0.00     0.176 C 
HETATM   84  O   UNL     1       4.419  -8.236  -2.332  1.00  0.00    -0.379 OA
HETATM   85  C   UNL     1       5.759  -8.712  -2.359  1.00  0.00     0.191 C 
HETATM   86  C   UNL     1       5.815 -10.145  -2.913  1.00  0.00     0.126 C 
HETATM   87  C   UNL     1       4.956 -11.054  -2.017  1.00  0.00     0.170 C 
BRANCH  83  88
HETATM   88  C   UNL     1       2.148  -8.353  -1.644  1.00  0.00     0.198 C 
BRANCH  88  89
HETATM   89  O   UNL     1       1.339  -9.131  -2.499  1.00  0.00    -0.398 OA
HETATM   90  H   UNL     1       1.456  -8.815  -3.397  1.00  0.00     0.209 HD
ENDBRANCH  88  89
ENDBRANCH  83  88
BRANCH  86  91
HETATM   91  N   UNL     1       7.218 -10.605  -3.003  1.00  0.00    -0.210 NA
HETATM   92  H   UNL     1       7.772  -9.872  -3.420  1.00  0.00     0.140 HD
BRANCH  91  93
HETATM   93  S   UNL     1       7.373 -11.952  -4.078  1.00  0.00     0.215 S 
HETATM   94  O   UNL     1       5.895 -12.464  -4.692  1.00  0.00    -0.211 OA
HETATM   95  O   UNL     1       8.410 -11.578  -5.346  1.00  0.00    -0.211 OA
BRANCH  93  96
HETATM   96  C   UNL     1       8.096 -13.332  -3.160  1.00  0.00     0.134 C 
HETATM   97  C   UNL     1       8.571 -14.462  -4.083  1.00  0.00     0.024 C 
HETATM   98  C   UNL     1       9.210 -15.602  -3.285  1.00  0.00     0.018 C 
HETATM   99  C   UNL     1       8.242 -16.175  -2.238  1.00  0.00     0.240 C 
HETATM  100  C   UNL     1       7.766 -15.053  -1.308  1.00  0.00     0.032 C 
HETATM  101  C   UNL     1       7.142 -13.892  -2.093  1.00  0.00     0.018 C 
BRANCH  99 102
HETATM  102  N   UNL     1       8.876 -17.253  -1.451  1.00  0.00     0.133 N 
HETATM  103  C   UNL     1       9.592 -18.247  -2.279  1.00  0.00     0.352 C 
HETATM  104  C   UNL     1       8.643 -19.052  -3.169  1.00  0.00     0.085 C 
HETATM  105  O   UNL     1      10.506 -19.126  -1.661  1.00  0.00    -0.189 OA
HETATM  106  H   UNL     1       9.526 -16.839  -0.799  1.00  0.00     0.320 HD
ENDBRANCH  99 102
ENDBRANCH  93  96
ENDBRANCH  91  93
ENDBRANCH  86  91
BRANCH  87 107
HETATM  107  O   UNL     1       5.579 -11.150  -0.750  1.00  0.00    -0.391 OA
HETATM  108  H   UNL     1       5.356 -10.366  -0.242  1.00  0.00     0.210 HD
ENDBRANCH  87 107
ENDBRANCH  81  82
ENDBRANCH  75  81
BRANCH  76 109
HETATM  109  N   UNL     1      -0.308 -11.744  -1.569  1.00  0.00    -0.208 NA
HETATM  110  H   UNL     1       0.022 -10.900  -1.124  1.00  0.00     0.140 HD
BRANCH 109 111
HETATM  111  S   UNL     1      -1.812 -12.085  -0.797  1.00  0.00     0.215 S 
HETATM  112  O   UNL     1      -2.807 -13.077  -1.721  1.00  0.00    -0.211 OA
HETATM  113  O   UNL     1      -1.518 -12.790   0.700  1.00  0.00    -0.211 OA
BRANCH 111 114
HETATM  114  C   UNL     1      -2.635 -10.494  -0.545  1.00  0.00     0.134 C 
HETATM  115  C   UNL     1      -2.110  -9.776   0.705  1.00  0.00     0.024 C 
HETATM  116  C   UNL     1      -2.804  -8.428   0.923  1.00  0.00     0.018 C 
HETATM  117  C   UNL     1      -4.322  -8.593   1.041  1.00  0.00     0.240 C 
HETATM  118  C   UNL     1      -4.868  -9.297  -0.210  1.00  0.00     0.032 C 
HETATM  119  C   UNL     1      -4.163 -10.635  -0.463  1.00  0.00     0.018 C 
BRANCH 117 120
HETATM  120  N   UNL     1      -4.958  -7.273   1.236  1.00  0.00     0.133 N 
HETATM  121  C   UNL     1      -5.805  -7.194   2.445  1.00  0.00     0.352 C 
HETATM  122  C   UNL     1      -4.963  -7.108   3.723  1.00  0.00     0.085 C 
HETATM  123  O   UNL     1      -6.827  -6.221   2.500  1.00  0.00    -0.189 OA
HETATM  124  H   UNL     1      -5.521  -7.064   0.424  1.00  0.00     0.320 HD
ENDBRANCH 117 120
ENDBRANCH 111 114
ENDBRANCH 109 111
ENDBRANCH  76 109
BRANCH  77 125
HETATM  125  O   UNL     1      -0.184 -13.840  -3.346  1.00  0.00    -0.391 OA
HETATM  126  H   UNL     1       0.585 -13.549  -3.841  1.00  0.00     0.210 HD
ENDBRANCH  77 125
ENDBRANCH  71  72
ENDBRANCH   4  71
TORSDOF 40
ENDMDL
MODEL 7
REMARK VINA RESULT:      -7.3     18.798     24.120
REMARK WARNING: 32 MAX_TORS EXCEEDED!!!
REMARK  40 active torsions:
REMARK  status: ('A' for Active; 'I' for Inactive)
REMARK    1  A    between atoms: C_1  and  O_123 
REMARK    2  A    between atoms: C_2  and  C_6 
REMARK    3  A    between atoms: C_3  and  O_10 
REMARK    4  A    between atoms: C_4  and  N_12 
REMARK    5  A    between atoms: C_5  and  O_124 
REMARK    6  A    between atoms: C_6  and  O_7 
REMARK    7  A    between atoms: N_12  and  S_13 
REMARK    8  A    between atoms: S_13  and  C_17 
REMARK    9  A    between atoms: C_20  and  N_23 
REMARK       I    between atoms: N_23  and  C_24 
REMARK   10  A    between atoms: O_29  and  C_33 
REMARK   11  A    between atoms: O_30  and  C_34 
REMARK   12  A    between atoms: C_31  and  C_34 
REMARK   13  A    between atoms: C_36  and  O_124 
REMARK   14  A    between atoms: N_37  and  C_40 
REMARK   15  A    between atoms: C_38  and  O_125 
REMARK   16  A    between atoms: O_42  and  C_46 
REMARK   17  A    between atoms: O_43  and  C_47 
REMARK   18  A    between atoms: C_44  and  C_47 
REMARK   19  A    between atoms: C_49  and  O_125 
REMARK   20  A    between atoms: N_50  and  S_61 
REMARK   21  A    between atoms: N_50  and  C_53 
REMARK   22  A    between atoms: C_51  and  O_126 
REMARK   23  A    between atoms: C_56  and  N_63 
REMARK   24  A    between atoms: C_59  and  S_61 
REMARK       I    between atoms: C_62  and  N_63 
REMARK   25  A    between atoms: O_69  and  C_73 
REMARK   26  A    between atoms: O_70  and  C_74 
REMARK   27  A    between atoms: C_71  and  C_74 
REMARK   28  A    between atoms: C_76  and  O_126 
REMARK   29  A    between atoms: N_77  and  S_88 
REMARK   30  A    between atoms: N_77  and  C_80 
REMARK   31  A    between atoms: C_83  and  N_90 
REMARK   32  A    between atoms: C_86  and  S_88 
REMARK       I    between atoms: C_89  and  N_90 
REMARK   33  A    between atoms: O_96  and  C_100 
REMARK   34  A    between atoms: O_97  and  C_101 
REMARK   35  A    between atoms: C_98  and  C_101 
REMARK   36  A    between atoms: N_104  and  S_115 
REMARK   37  A    between atoms: N_104  and  C_107 
REMARK   38  A    between atoms: C_105  and  O_123 
REMARK   39  A    between atoms: C_110  and  N_117 
REMARK   40  A    between atoms: C_113  and  S_115 
REMARK       I    between atoms: C_116  and  N_117 
ROOT
HETATM    1  C   UNL     1       5.709 -14.507  -2.407  1.00  0.00     0.179 C 
HETATM    2  C   UNL     1       3.661 -13.479  -3.510  1.00  0.00     0.187 C 
HETATM    3  C   UNL     1       4.720 -13.313  -2.403  1.00  0.00     0.186 C 
HETATM    4  C   UNL     1       5.738 -14.195  -4.852  1.00  0.00     0.296 C 
HETATM    5  O   UNL     1       5.917 -15.050  -3.718  1.00  0.00    -0.349 OA
HETATM    6  C   UNL     1       4.371 -13.478  -4.878  1.00  0.00     0.303 C 
ENDROOT
BRANCH   3   7
HETATM    7  O   UNL     1       4.133 -12.997  -1.138  1.00  0.00    -0.349 OA
BRANCH   7   8
HETATM    8  C   UNL     1       3.916 -11.626  -0.833  1.00  0.00     0.282 C 
HETATM    9  C   UNL     1       2.582 -11.152  -1.422  1.00  0.00     0.157 C 
HETATM   10  C   UNL     1       2.499  -9.626  -1.248  1.00  0.00     0.173 C 
HETATM   11  C   UNL     1       3.752  -8.979  -1.881  1.00  0.00     0.186 C 
HETATM   12  C   UNL     1       5.056  -9.603  -1.328  1.00  0.00     0.179 C 
HETATM   13  O   UNL     1       5.012 -11.015  -1.492  1.00  0.00    -0.349 OA
BRANCH   9  14
HETATM   14  N   UNL     1       1.469 -11.844  -0.742  1.00  0.00    -0.208 NA
HETATM   15  H   UNL     1       1.768 -12.774  -0.483  1.00  0.00     0.140 HD
BRANCH  14  16
HETATM   16  S   UNL     1       0.136 -12.085  -1.813  1.00  0.00     0.215 S 
HETATM   17  O   UNL     1       0.562 -11.868  -3.423  1.00  0.00    -0.211 OA
HETATM   18  O   UNL     1      -0.500 -13.624  -1.588  1.00  0.00    -0.211 OA
BRANCH  16  19
HETATM   19  C   UNL     1      -1.127 -10.867  -1.378  1.00  0.00     0.134 C 
HETATM   20  C   UNL     1      -1.218 -10.665   0.139  1.00  0.00     0.024 C 
HETATM   21  C   UNL     1      -2.269  -9.616   0.511  1.00  0.00     0.018 C 
HETATM   22  C   UNL     1      -3.651 -10.003  -0.027  1.00  0.00     0.240 C 
HETATM   23  C   UNL     1      -3.577 -10.194  -1.550  1.00  0.00     0.032 C 
HETATM   24  C   UNL     1      -2.511 -11.226  -1.940  1.00  0.00     0.018 C 
BRANCH  22  25
HETATM   25  N   UNL     1      -4.647  -8.977   0.352  1.00  0.00     0.133 N 
HETATM   26  C   UNL     1      -6.013  -9.220  -0.161  1.00  0.00     0.352 C 
HETATM   27  O   UNL     1      -6.960  -8.178  -0.076  1.00  0.00    -0.189 OA
HETATM   28  C   UNL     1      -6.636 -10.511   0.382  1.00  0.00     0.085 C 
HETATM   29  H   UNL     1      -4.330  -8.079   0.016  1.00  0.00     0.320 HD
ENDBRANCH  22  25
ENDBRANCH  16  19
ENDBRANCH  14  16
ENDBRANCH   9  14
BRANCH  10  30
HETATM   30  O   UNL     1       2.367  -9.357   0.136  1.00  0.00    -0.391 OA
HETATM   31  H   UNL     1       1.836  -8.563   0.241  1.00  0.00     0.210 HD
ENDBRANCH  10  30
BRANCH  11  32
HETATM   32  O   UNL     1       3.700  -7.548  -1.868  1.00  0.00    -0.349 OA
BRANCH  32  33
HETATM   33  C   UNL     1       4.030  -6.865  -3.072  1.00  0.00     0.281 C 
HETATM   34  O   UNL     1       3.696  -7.838  -4.047  1.00  0.00    -0.352 OA
HETATM   35  C   UNL     1       4.019  -7.411  -5.361  1.00  0.00     0.150 C 
HETATM   36  C   UNL     1       3.170  -6.177  -5.715  1.00  0.00     0.067 C 
HETATM   37  C   UNL     1       3.356  -5.060  -4.674  1.00  0.00     0.144 C 
HETATM   38  C   UNL     1       3.176  -5.599  -3.241  1.00  0.00     0.155 C 
BRANCH  35  39
HETATM   39  C   UNL     1       3.748  -8.554  -6.346  1.00  0.00     0.196 C 
BRANCH  39  40
HETATM   40  O   UNL     1       4.063  -9.794  -5.746  1.00  0.00    -0.398 OA
HETATM   41  H   UNL     1       4.055 -10.471  -6.426  1.00  0.00     0.209 HD
ENDBRANCH  39  40
ENDBRANCH  35  39
BRANCH  37  42
HETATM   42  O   UNL     1       4.638  -4.478  -4.809  1.00  0.00    -0.394 OA
HETATM   43  H   UNL     1       5.138  -4.652  -4.008  1.00  0.00     0.210 HD
ENDBRANCH  37  42
BRANCH  38  44
HETATM   44  N   UNL     1       3.574  -4.600  -2.229  1.00  0.00    -0.208 NA
HETATM   45  H   UNL     1       4.251  -5.015  -1.605  1.00  0.00     0.140 HD
BRANCH  44  46
HETATM   46  S   UNL     1       2.264  -4.124  -1.210  1.00  0.00     0.215 S 
HETATM   47  O   UNL     1       2.524  -4.511   0.404  1.00  0.00    -0.211 OA
HETATM   48  O   UNL     1       1.986  -2.476  -1.373  1.00  0.00    -0.211 OA
BRANCH  46  49
HETATM   49  C   UNL     1       0.801  -5.026  -1.780  1.00  0.00     0.134 C 
HETATM   50  C   UNL     1      -0.408  -4.093  -1.938  1.00  0.00     0.024 C 
HETATM   51  C   UNL     1      -1.648  -4.844  -2.432  1.00  0.00     0.018 C 
HETATM   52  C   UNL     1      -2.015  -6.001  -1.493  1.00  0.00     0.240 C 
HETATM   53  C   UNL     1      -0.815  -6.945  -1.344  1.00  0.00     0.032 C 
HETATM   54  C   UNL     1       0.438  -6.202  -0.862  1.00  0.00     0.018 C 
BRANCH  52  55
HETATM   55  N   UNL     1      -3.195  -6.746  -1.985  1.00  0.00     0.133 N 
HETATM   56  C   UNL     1      -4.430  -5.937  -2.054  1.00  0.00     0.352 C 
HETATM   57  C   UNL     1      -4.887  -5.435  -0.682  1.00  0.00     0.085 C 
HETATM   58  O   UNL     1      -5.544  -6.439  -2.759  1.00  0.00    -0.189 OA
HETATM   59  H   UNL     1      -2.989  -7.107  -2.906  1.00  0.00     0.320 HD
ENDBRANCH  52  55
ENDBRANCH  46  49
ENDBRANCH  44  46
ENDBRANCH  38  44
ENDBRANCH  32  33
ENDBRANCH  11  32
BRANCH  12  60
HETATM   60  C   UNL     1       6.296  -9.115  -2.089  1.00  0.00     0.198 C 
BRANCH  60  61
HETATM   61  O   UNL     1       6.738  -7.886  -1.553  1.00  0.00    -0.398 OA
HETATM   62  H   UNL     1       7.485  -7.579  -2.071  1.00  0.00     0.209 HD
ENDBRANCH  60  61
ENDBRANCH  12  60
ENDBRANCH   7   8
ENDBRANCH   3   7
BRANCH   1  63
HETATM   63  C   UNL     1       7.033 -14.129  -1.726  1.00  0.00     0.198 C 
BRANCH  63  64
HETATM   64  O   UNL     1       7.272 -12.746  -1.871  1.00  0.00    -0.398 OA
HETATM   65  H   UNL     1       7.706 -12.426  -1.077  1.00  0.00     0.209 HD
ENDBRANCH  63  64
ENDBRANCH   1  63
BRANCH   2  66
HETATM   66  O   UNL     1       2.917 -14.676  -3.367  1.00  0.00    -0.391 OA
HETATM   67  H   UNL     1       3.533 -15.407  -3.278  1.00  0.00     0.210 HD
ENDBRANCH   2  66
BRANCH   6  68
HETATM   68  N   UNL     1       3.504 -14.053  -5.922  1.00  0.00     0.090 N 
HETATM   69  H   UNL     1       4.059 -14.284  -6.734  1.00  0.00     0.313 HD
HETATM   70  H   UNL     1       3.059 -14.887  -5.568  1.00  0.00     0.313 HD
ENDBRANCH   6  68
BRANCH   4  71
HETATM   71  O   UNL     1       6.806 -13.261  -4.708  1.00  0.00    -0.348 OA
BRANCH  71  72
HETATM   72  C   UNL     1       7.983 -13.469  -5.493  1.00  0.00     0.186 C 
HETATM   73  C   UNL     1       8.677 -12.172  -5.966  1.00  0.00     0.179 C 
HETATM   74  O   UNL     1       9.711 -12.520  -6.874  1.00  0.00    -0.349 OA
HETATM   75  C   UNL     1      10.723 -13.322  -6.288  1.00  0.00     0.282 C 
HETATM   76  C   UNL     1      10.163 -14.686  -5.850  1.00  0.00     0.157 C 
HETATM   77  C   UNL     1       8.999 -14.453  -4.867  1.00  0.00     0.173 C 
BRANCH  73  78
HETATM   78  C   UNL     1       7.705 -11.247  -6.711  1.00  0.00     0.198 C 
BRANCH  78  79
HETATM   79  O   UNL     1       6.851 -10.598  -5.792  1.00  0.00    -0.398 OA
HETATM   80  H   UNL     1       6.464 -11.261  -5.217  1.00  0.00     0.209 HD
ENDBRANCH  78  79
ENDBRANCH  73  78
BRANCH  75  81
HETATM   81  O   UNL     1      11.622 -13.469  -7.381  1.00  0.00    -0.349 OA
BRANCH  81  82
HETATM   82  C   UNL     1      12.699 -12.534  -7.493  1.00  0.00     0.186 C 
HETATM   83  C   UNL     1      14.115 -13.144  -7.636  1.00  0.00     0.176 C 
HETATM   84  O   UNL     1      15.090 -12.103  -7.648  1.00  0.00    -0.379 OA
HETATM   85  C   UNL     1      14.907 -11.132  -8.671  1.00  0.00     0.191 C 
HETATM   86  C   UNL     1      13.556 -10.416  -8.504  1.00  0.00     0.126 C 
HETATM   87  C   UNL     1      12.431 -11.463  -8.571  1.00  0.00     0.170 C 
BRANCH  83  88
HETATM   88  C   UNL     1      14.458 -14.053  -6.448  1.00  0.00     0.198 C 
BRANCH  88  89
HETATM   89  O   UNL     1      13.931 -15.346  -6.657  1.00  0.00    -0.398 OA
HETATM   90  H   UNL     1      14.662 -15.955  -6.779  1.00  0.00     0.209 HD
ENDBRANCH  88  89
ENDBRANCH  83  88
BRANCH  86  91
HETATM   91  N   UNL     1      13.405  -9.360  -9.529  1.00  0.00    -0.210 NA
HETATM   92  H   UNL     1      14.322  -9.103  -9.865  1.00  0.00     0.140 HD
BRANCH  91  93
HETATM   93  S   UNL     1      12.750  -7.910  -8.850  1.00  0.00     0.215 S 
HETATM   94  O   UNL     1      11.829  -7.038  -9.951  1.00  0.00    -0.211 OA
HETATM   95  O   UNL     1      11.824  -8.262  -7.493  1.00  0.00    -0.211 OA
BRANCH  93  96
HETATM   96  C   UNL     1      14.124  -6.857  -8.324  1.00  0.00     0.134 C 
HETATM   97  C   UNL     1      15.463  -7.306  -8.924  1.00  0.00     0.024 C 
HETATM   98  C   UNL     1      16.604  -6.380  -8.492  1.00  0.00     0.018 C 
HETATM   99  C   UNL     1      16.731  -6.309  -6.962  1.00  0.00     0.240 C 
HETATM  100  C   UNL     1      15.397  -5.857  -6.356  1.00  0.00     0.032 C 
HETATM  101  C   UNL     1      14.239  -6.762  -6.795  1.00  0.00     0.018 C 
BRANCH  99 102
HETATM  102  N   UNL     1      17.813  -5.390  -6.553  1.00  0.00     0.133 N 
HETATM  103  C   UNL     1      19.126  -6.052  -6.400  1.00  0.00     0.352 C 
HETATM  104  C   UNL     1      19.137  -7.053  -5.243  1.00  0.00     0.085 C 
HETATM  105  O   UNL     1      20.293  -5.262  -6.341  1.00  0.00    -0.189 OA
HETATM  106  H   UNL     1      17.894  -4.656  -7.243  1.00  0.00     0.320 HD
ENDBRANCH  99 102
ENDBRANCH  93  96
ENDBRANCH  91  93
ENDBRANCH  86  91
BRANCH  87 107
HETATM  107  O   UNL     1      12.385 -11.986  -9.886  1.00  0.00    -0.391 OA
HETATM  108  H   UNL     1      13.130 -12.579 -10.003  1.00  0.00     0.210 HD
ENDBRANCH  87 107
ENDBRANCH  81  82
ENDBRANCH  75  81
BRANCH  76 109
HETATM  109  N   UNL     1      11.238 -15.481  -5.227  1.00  0.00    -0.208 NA
HETATM  110  H   UNL     1      12.131 -15.168  -5.582  1.00  0.00     0.140 HD
BRANCH 109 111
HETATM  111  S   UNL     1      11.160 -17.150  -5.653  1.00  0.00     0.215 S 
HETATM  112  O   UNL     1      10.479 -17.403  -7.169  1.00  0.00    -0.211 OA
HETATM  113  O   UNL     1      12.705 -17.809  -5.593  1.00  0.00    -0.211 OA
BRANCH 111 114
HETATM  114  C   UNL     1      10.130 -17.954  -4.403  1.00  0.00     0.134 C 
HETATM  115  C   UNL     1       8.662 -18.033  -4.842  1.00  0.00     0.024 C 
HETATM  116  C   UNL     1       7.785 -18.713  -3.786  1.00  0.00     0.018 C 
HETATM  117  C   UNL     1       7.866 -17.986  -2.439  1.00  0.00     0.240 C 
HETATM  118  C   UNL     1       9.329 -17.912  -1.976  1.00  0.00     0.032 C 
HETATM  119  C   UNL     1      10.229 -17.261  -3.034  1.00  0.00     0.018 C 
BRANCH 117 120
HETATM  120  N   UNL     1       7.021 -18.677  -1.443  1.00  0.00     0.133 N 
HETATM  121  C   UNL     1       5.773 -17.954  -1.118  1.00  0.00     0.352 C 
HETATM  122  C   UNL     1       4.741 -18.067  -2.245  1.00  0.00     0.085 C 
HETATM  123  O   UNL     1       5.138 -18.210   0.116  1.00  0.00    -0.189 OA
HETATM  124  H   UNL     1       7.560 -18.805  -0.598  1.00  0.00     0.320 HD
ENDBRANCH 117 120
ENDBRANCH 111 114
ENDBRANCH 109 111
ENDBRANCH  76 109
BRANCH  77 125
HETATM  125  O   UNL     1       9.552 -13.984  -3.652  1.00  0.00    -0.391 OA
HETATM  126  H   UNL     1       8.993 -14.278  -2.930  1.00  0.00     0.210 HD
ENDBRANCH  77 125
ENDBRANCH  71  72
ENDBRANCH   4  71
TORSDOF 40
ENDMDL
MODEL 8
REMARK VINA RESULT:      -7.3     21.271     27.748
REMARK WARNING: 32 MAX_TORS EXCEEDED!!!
REMARK  40 active torsions:
REMARK  status: ('A' for Active; 'I' for Inactive)
REMARK    1  A    between atoms: C_1  and  O_123 
REMARK    2  A    between atoms: C_2  and  C_6 
REMARK    3  A    between atoms: C_3  and  O_10 
REMARK    4  A    between atoms: C_4  and  N_12 
REMARK    5  A    between atoms: C_5  and  O_124 
REMARK    6  A    between atoms: C_6  and  O_7 
REMARK    7  A    between atoms: N_12  and  S_13 
REMARK    8  A    between atoms: S_13  and  C_17 
REMARK    9  A    between atoms: C_20  and  N_23 
REMARK       I    between atoms: N_23  and  C_24 
REMARK   10  A    between atoms: O_29  and  C_33 
REMARK   11  A    between atoms: O_30  and  C_34 
REMARK   12  A    between atoms: C_31  and  C_34 
REMARK   13  A    between atoms: C_36  and  O_124 
REMARK   14  A    between atoms: N_37  and  C_40 
REMARK   15  A    between atoms: C_38  and  O_125 
REMARK   16  A    between atoms: O_42  and  C_46 
REMARK   17  A    between atoms: O_43  and  C_47 
REMARK   18  A    between atoms: C_44  and  C_47 
REMARK   19  A    between atoms: C_49  and  O_125 
REMARK   20  A    between atoms: N_50  and  S_61 
REMARK   21  A    between atoms: N_50  and  C_53 
REMARK   22  A    between atoms: C_51  and  O_126 
REMARK   23  A    between atoms: C_56  and  N_63 
REMARK   24  A    between atoms: C_59  and  S_61 
REMARK       I    between atoms: C_62  and  N_63 
REMARK   25  A    between atoms: O_69  and  C_73 
REMARK   26  A    between atoms: O_70  and  C_74 
REMARK   27  A    between atoms: C_71  and  C_74 
REMARK   28  A    between atoms: C_76  and  O_126 
REMARK   29  A    between atoms: N_77  and  S_88 
REMARK   30  A    between atoms: N_77  and  C_80 
REMARK   31  A    between atoms: C_83  and  N_90 
REMARK   32  A    between atoms: C_86  and  S_88 
REMARK       I    between atoms: C_89  and  N_90 
REMARK   33  A    between atoms: O_96  and  C_100 
REMARK   34  A    between atoms: O_97  and  C_101 
REMARK   35  A    between atoms: C_98  and  C_101 
REMARK   36  A    between atoms: N_104  and  S_115 
REMARK   37  A    between atoms: N_104  and  C_107 
REMARK   38  A    between atoms: C_105  and  O_123 
REMARK   39  A    between atoms: C_110  and  N_117 
REMARK   40  A    between atoms: C_113  and  S_115 
REMARK       I    between atoms: C_116  and  N_117 
ROOT
HETATM    1  C   UNL     1       3.087   0.094  -4.103  1.00  0.00     0.179 C 
HETATM    2  C   UNL     1       1.340  -1.473  -5.082  1.00  0.00     0.187 C 
HETATM    3  C   UNL     1       2.523  -1.350  -4.102  1.00  0.00     0.186 C 
HETATM    4  C   UNL     1       0.723   0.787  -4.015  1.00  0.00     0.296 C 
HETATM    5  O   UNL     1       2.080   1.083  -4.361  1.00  0.00    -0.349 OA
HETATM    6  C   UNL     1       0.207  -0.541  -4.610  1.00  0.00     0.303 C 
ENDROOT
BRANCH   3   7
HETATM    7  O   UNL     1       3.484  -2.392  -4.284  1.00  0.00    -0.349 OA
BRANCH   7   8
HETATM    8  C   UNL     1       3.574  -3.392  -3.277  1.00  0.00     0.282 C 
HETATM    9  C   UNL     1       3.102  -4.745  -3.823  1.00  0.00     0.157 C 
HETATM   10  C   UNL     1       3.018  -5.732  -2.647  1.00  0.00     0.173 C 
HETATM   11  C   UNL     1       2.115  -5.127  -1.547  1.00  0.00     0.186 C 
HETATM   12  C   UNL     1       2.582  -3.708  -1.143  1.00  0.00     0.179 C 
HETATM   13  O   UNL     1       2.673  -2.892  -2.304  1.00  0.00    -0.349 OA
BRANCH   9  14
HETATM   14  N   UNL     1       4.039  -5.210  -4.866  1.00  0.00    -0.208 NA
HETATM   15  H   UNL     1       4.130  -4.492  -5.571  1.00  0.00     0.140 HD
BRANCH  14  16
HETATM   16  S   UNL     1       3.411  -6.584  -5.703  1.00  0.00     0.215 S 
HETATM   17  O   UNL     1       1.758  -6.773  -5.470  1.00  0.00    -0.211 OA
HETATM   18  O   UNL     1       3.751  -6.452  -7.343  1.00  0.00    -0.211 OA
BRANCH  16  19
HETATM   19  C   UNL     1       4.259  -8.041  -5.050  1.00  0.00     0.134 C 
HETATM   20  C   UNL     1       5.776  -7.948  -5.251  1.00  0.00     0.024 C 
HETATM   21  C   UNL     1       6.501  -9.169  -4.678  1.00  0.00     0.018 C 
HETATM   22  C   UNL     1       5.990 -10.465  -5.316  1.00  0.00     0.240 C 
HETATM   23  C   UNL     1       4.472 -10.578  -5.109  1.00  0.00     0.032 C 
HETATM   24  C   UNL     1       3.732  -9.351  -5.657  1.00  0.00     0.018 C 
BRANCH  22  25
HETATM   25  N   UNL     1       6.710 -11.626  -4.750  1.00  0.00     0.133 N 
HETATM   26  C   UNL     1       7.154 -11.459  -3.349  1.00  0.00     0.352 C 
HETATM   27  O   UNL     1       8.066 -12.393  -2.815  1.00  0.00    -0.189 OA
HETATM   28  C   UNL     1       5.988 -11.277  -2.370  1.00  0.00     0.085 C 
HETATM   29  H   UNL     1       7.519 -11.816  -5.325  1.00  0.00     0.320 HD
ENDBRANCH  22  25
ENDBRANCH  16  19
ENDBRANCH  14  16
ENDBRANCH   9  14
BRANCH  10  30
HETATM   30  O   UNL     1       4.339  -5.992  -2.208  1.00  0.00    -0.391 OA
HETATM   31  H   UNL     1       4.925  -5.346  -2.611  1.00  0.00     0.210 HD
ENDBRANCH  10  30
BRANCH  11  32
HETATM   32  O   UNL     1       1.887  -6.033  -0.462  1.00  0.00    -0.349 OA
BRANCH  32  33
HETATM   33  C   UNL     1       0.620  -6.678  -0.397  1.00  0.00     0.281 C 
HETATM   34  O   UNL     1      -0.131  -5.916  -1.326  1.00  0.00    -0.352 OA
HETATM   35  C   UNL     1      -1.488  -6.326  -1.382  1.00  0.00     0.150 C 
HETATM   36  C   UNL     1      -1.558  -7.775  -1.898  1.00  0.00     0.067 C 
HETATM   37  C   UNL     1      -0.698  -8.712  -1.034  1.00  0.00     0.144 C 
HETATM   38  C   UNL     1       0.723  -8.145  -0.843  1.00  0.00     0.155 C 
BRANCH  35  39
HETATM   39  C   UNL     1      -2.264  -5.384  -2.309  1.00  0.00     0.196 C 
BRANCH  39  40
HETATM   40  O   UNL     1      -2.376  -4.107  -1.716  1.00  0.00    -0.398 OA
HETATM   41  H   UNL     1      -1.713  -3.532  -2.104  1.00  0.00     0.209 HD
ENDBRANCH  39  40
ENDBRANCH  35  39
BRANCH  37  42
HETATM   42  O   UNL     1      -1.309  -8.910   0.226  1.00  0.00    -0.394 OA
HETATM   43  H   UNL     1      -0.781  -9.538   0.725  1.00  0.00     0.210 HD
ENDBRANCH  37  42
BRANCH  38  44
HETATM   44  N   UNL     1       1.484  -8.911   0.164  1.00  0.00    -0.208 NA
HETATM   45  H   UNL     1       1.860  -8.272   0.850  1.00  0.00     0.140 HD
BRANCH  44  46
HETATM   46  S   UNL     1       2.863  -9.706  -0.504  1.00  0.00     0.215 S 
HETATM   47  O   UNL     1       3.378  -9.012  -1.945  1.00  0.00    -0.211 OA
HETATM   48  O   UNL     1       4.114  -9.713   0.616  1.00  0.00    -0.211 OA
BRANCH  46  49
HETATM   49  C   UNL     1       2.370 -11.415  -0.845  1.00  0.00     0.134 C 
HETATM   50  C   UNL     1       2.129 -11.642  -2.344  1.00  0.00     0.024 C 
HETATM   51  C   UNL     1       1.723 -13.088  -2.645  1.00  0.00     0.018 C 
HETATM   52  C   UNL     1       0.469 -13.495  -1.858  1.00  0.00     0.240 C 
HETATM   53  C   UNL     1       0.711 -13.285  -0.359  1.00  0.00     0.032 C 
HETATM   54  C   UNL     1       1.131 -11.843  -0.045  1.00  0.00     0.018 C 
BRANCH  52  55
HETATM   55  N   UNL     1       0.094 -14.901  -2.125  1.00  0.00     0.133 N 
HETATM   56  C   UNL     1      -1.331 -15.087  -2.470  1.00  0.00     0.352 C 
HETATM   57  C   UNL     1      -2.273 -14.689  -1.331  1.00  0.00     0.085 C 
HETATM   58  O   UNL     1      -1.753 -16.319  -3.012  1.00  0.00    -0.189 OA
HETATM   59  H   UNL     1       0.662 -15.249  -2.884  1.00  0.00     0.320 HD
ENDBRANCH  52  55
ENDBRANCH  46  49
ENDBRANCH  44  46
ENDBRANCH  38  44
ENDBRANCH  32  33
ENDBRANCH  11  32
BRANCH  12  60
HETATM   60  C   UNL     1       1.584  -3.019  -0.203  1.00  0.00     0.198 C 
BRANCH  60  61
HETATM   61  O   UNL     1       1.709  -1.617  -0.311  1.00  0.00    -0.398 OA
HETATM   62  H   UNL     1       2.361  -1.421  -0.987  1.00  0.00     0.209 HD
ENDBRANCH  60  61
ENDBRANCH  12  60
ENDBRANCH   7   8
ENDBRANCH   3   7
BRANCH   1  63
HETATM   63  C   UNL     1       3.859   0.386  -2.808  1.00  0.00     0.198 C 
BRANCH  63  64
HETATM   64  O   UNL     1       4.946  -0.506  -2.685  1.00  0.00    -0.398 OA
HETATM   65  H   UNL     1       4.875  -0.960  -1.842  1.00  0.00     0.209 HD
ENDBRANCH  63  64
ENDBRANCH   1  63
BRANCH   2  66
HETATM   66  O   UNL     1       1.704  -1.136  -6.409  1.00  0.00    -0.391 OA
HETATM   67  H   UNL     1       1.446  -0.226  -6.573  1.00  0.00     0.210 HD
ENDBRANCH   2  66
BRANCH   6  68
HETATM   68  N   UNL     1      -0.752  -0.283  -5.700  1.00  0.00     0.090 N 
HETATM   69  H   UNL     1      -0.441   0.510  -6.243  1.00  0.00     0.313 HD
HETATM   70  H   UNL     1      -0.813  -1.097  -6.295  1.00  0.00     0.313 HD
ENDBRANCH   6  68
BRANCH   4  71
HETATM   71  O   UNL     1       0.772   0.728  -2.590  1.00  0.00    -0.348 OA
BRANCH  71  72
HETATM   72  C   UNL     1      -0.106   1.588  -1.858  1.00  0.00     0.186 C 
HETATM   73  C   UNL     1      -1.159   0.850  -1.001  1.00  0.00     0.179 C 
HETATM   74  O   UNL     1      -2.065   1.809  -0.479  1.00  0.00    -0.349 OA
HETATM   75  C   UNL     1      -1.447   2.754   0.377  1.00  0.00     0.282 C 
HETATM   76  C   UNL     1      -0.429   3.613  -0.392  1.00  0.00     0.157 C 
HETATM   77  C   UNL     1       0.616   2.683  -1.040  1.00  0.00     0.173 C 
BRANCH  73  78
HETATM   78  C   UNL     1      -1.975  -0.146  -1.836  1.00  0.00     0.198 C 
BRANCH  78  79
HETATM   79  O   UNL     1      -2.020  -1.401  -1.191  1.00  0.00    -0.398 OA
HETATM   80  H   UNL     1      -1.770  -1.279  -0.272  1.00  0.00     0.209 HD
ENDBRANCH  78  79
ENDBRANCH  73  78
BRANCH  75  81
HETATM   81  O   UNL     1      -2.568   3.534   0.778  1.00  0.00    -0.349 OA
BRANCH  81  82
HETATM   82  C   UNL     1      -3.106   3.311   2.085  1.00  0.00     0.186 C 
HETATM   83  C   UNL     1      -3.470   4.579   2.895  1.00  0.00     0.176 C 
HETATM   84  O   UNL     1      -3.907   4.208   4.202  1.00  0.00    -0.379 OA
HETATM   85  C   UNL     1      -5.017   3.320   4.225  1.00  0.00     0.191 C 
HETATM   86  C   UNL     1      -4.666   1.995   3.527  1.00  0.00     0.126 C 
HETATM   87  C   UNL     1      -4.267   2.294   2.072  1.00  0.00     0.170 C 
BRANCH  83  88
HETATM   88  C   UNL     1      -2.251   5.494   3.083  1.00  0.00     0.198 C 
BRANCH  88  89
HETATM   89  O   UNL     1      -1.946   6.151   1.872  1.00  0.00    -0.398 OA
HETATM   90  H   UNL     1      -2.216   7.069   1.948  1.00  0.00     0.209 HD
ENDBRANCH  88  89
ENDBRANCH  83  88
BRANCH  86  91
HETATM   91  N   UNL     1      -5.802   1.051   3.618  1.00  0.00    -0.210 NA
HETATM   92  H   UNL     1      -6.653   1.548   3.400  1.00  0.00     0.140 HD
BRANCH  91  93
HETATM   93  S   UNL     1      -6.017   0.475   5.235  1.00  0.00     0.215 S 
HETATM   94  O   UNL     1      -5.271   1.457   6.376  1.00  0.00    -0.211 OA
HETATM   95  O   UNL     1      -7.651   0.332   5.597  1.00  0.00    -0.211 OA
BRANCH  93  96
HETATM   96  C   UNL     1      -5.276  -1.171   5.356  1.00  0.00     0.134 C 
HETATM   97  C   UNL     1      -5.808  -2.128   4.281  1.00  0.00     0.024 C 
HETATM   98  C   UNL     1      -5.141  -3.503   4.383  1.00  0.00     0.018 C 
HETATM   99  C   UNL     1      -5.345  -4.133   5.769  1.00  0.00     0.240 C 
HETATM  100  C   UNL     1      -4.812  -3.183   6.849  1.00  0.00     0.032 C 
HETATM  101  C   UNL     1      -5.454  -1.793   6.749  1.00  0.00     0.018 C 
BRANCH  99 102
HETATM  102  N   UNL     1      -4.673  -5.445   5.869  1.00  0.00     0.133 N 
HETATM  103  C   UNL     1      -5.201  -6.453   4.926  1.00  0.00     0.352 C 
HETATM  104  C   UNL     1      -6.648  -6.839   5.240  1.00  0.00     0.085 C 
HETATM  105  O   UNL     1      -4.452  -7.623   4.679  1.00  0.00    -0.189 OA
HETATM  106  H   UNL     1      -3.687  -5.318   5.697  1.00  0.00     0.320 HD
ENDBRANCH  99 102
ENDBRANCH  93  96
ENDBRANCH  91  93
ENDBRANCH  86  91
BRANCH  87 107
HETATM  107  O   UNL     1      -5.412   2.755   1.380  1.00  0.00    -0.391 OA
HETATM  108  H   UNL     1      -5.857   1.998   0.992  1.00  0.00     0.210 HD
ENDBRANCH  87 107
ENDBRANCH  81  82
ENDBRANCH  75  81
BRANCH  76 109
HETATM  109  N   UNL     1       0.208   4.568   0.536  1.00  0.00    -0.208 NA
HETATM  110  H   UNL     1      -0.499   4.968   1.137  1.00  0.00     0.140 HD
BRANCH 109 111
HETATM  111  S   UNL     1       0.904   5.919  -0.279  1.00  0.00     0.215 S 
HETATM  112  O   UNL     1       0.249   6.166  -1.807  1.00  0.00    -0.211 OA
HETATM  113  O   UNL     1       0.709   7.294   0.666  1.00  0.00    -0.211 OA
BRANCH 111 114
HETATM  114  C   UNL     1       2.671   5.566  -0.445  1.00  0.00     0.134 C 
HETATM  115  C   UNL     1       3.530   6.652   0.216  1.00  0.00     0.024 C 
HETATM  116  C   UNL     1       5.027   6.358   0.077  1.00  0.00     0.018 C 
HETATM  117  C   UNL     1       5.437   6.220  -1.392  1.00  0.00     0.240 C 
HETATM  118  C   UNL     1       4.597   5.125  -2.066  1.00  0.00     0.032 C 
HETATM  119  C   UNL     1       3.093   5.386  -1.912  1.00  0.00     0.018 C 
BRANCH 117 120
HETATM  120  N   UNL     1       6.882   5.924  -1.486  1.00  0.00     0.133 N 
HETATM  121  C   UNL     1       7.495   6.347  -2.763  1.00  0.00     0.352 C 
HETATM  122  C   UNL     1       7.682   7.866  -2.827  1.00  0.00     0.085 C 
HETATM  123  O   UNL     1       8.683   5.716  -3.191  1.00  0.00    -0.189 OA
HETATM  124  H   UNL     1       7.014   4.929  -1.368  1.00  0.00     0.320 HD
ENDBRANCH 117 120
ENDBRANCH 111 114
ENDBRANCH 109 111
ENDBRANCH  76 109
BRANCH  77 125
HETATM  125  O   UNL     1       1.427   2.162  -0.004  1.00  0.00    -0.391 OA
HETATM  126  H   UNL     1       0.864   1.695   0.616  1.00  0.00     0.210 HD
ENDBRANCH  77 125
ENDBRANCH  71  72
ENDBRANCH   4  71
TORSDOF 40
ENDMDL
MODEL 9
REMARK VINA RESULT:      -7.3     25.411     31.396
REMARK WARNING: 32 MAX_TORS EXCEEDED!!!
REMARK  40 active torsions:
REMARK  status: ('A' for Active; 'I' for Inactive)
REMARK    1  A    between atoms: C_1  and  O_123 
REMARK    2  A    between atoms: C_2  and  C_6 
REMARK    3  A    between atoms: C_3  and  O_10 
REMARK    4  A    between atoms: C_4  and  N_12 
REMARK    5  A    between atoms: C_5  and  O_124 
REMARK    6  A    between atoms: C_6  and  O_7 
REMARK    7  A    between atoms: N_12  and  S_13 
REMARK    8  A    between atoms: S_13  and  C_17 
REMARK    9  A    between atoms: C_20  and  N_23 
REMARK       I    between atoms: N_23  and  C_24 
REMARK   10  A    between atoms: O_29  and  C_33 
REMARK   11  A    between atoms: O_30  and  C_34 
REMARK   12  A    between atoms: C_31  and  C_34 
REMARK   13  A    between atoms: C_36  and  O_124 
REMARK   14  A    between atoms: N_37  and  C_40 
REMARK   15  A    between atoms: C_38  and  O_125 
REMARK   16  A    between atoms: O_42  and  C_46 
REMARK   17  A    between atoms: O_43  and  C_47 
REMARK   18  A    between atoms: C_44  and  C_47 
REMARK   19  A    between atoms: C_49  and  O_125 
REMARK   20  A    between atoms: N_50  and  S_61 
REMARK   21  A    between atoms: N_50  and  C_53 
REMARK   22  A    between atoms: C_51  and  O_126 
REMARK   23  A    between atoms: C_56  and  N_63 
REMARK   24  A    between atoms: C_59  and  S_61 
REMARK       I    between atoms: C_62  and  N_63 
REMARK   25  A    between atoms: O_69  and  C_73 
REMARK   26  A    between atoms: O_70  and  C_74 
REMARK   27  A    between atoms: C_71  and  C_74 
REMARK   28  A    between atoms: C_76  and  O_126 
REMARK   29  A    between atoms: N_77  and  S_88 
REMARK   30  A    between atoms: N_77  and  C_80 
REMARK   31  A    between atoms: C_83  and  N_90 
REMARK   32  A    between atoms: C_86  and  S_88 
REMARK       I    between atoms: C_89  and  N_90 
REMARK   33  A    between atoms: O_96  and  C_100 
REMARK   34  A    between atoms: O_97  and  C_101 
REMARK   35  A    between atoms: C_98  and  C_101 
REMARK   36  A    between atoms: N_104  and  S_115 
REMARK   37  A    between atoms: N_104  and  C_107 
REMARK   38  A    between atoms: C_105  and  O_123 
REMARK   39  A    between atoms: C_110  and  N_117 
REMARK   40  A    between atoms: C_113  and  S_115 
REMARK       I    between atoms: C_116  and  N_117 
ROOT
HETATM    1  C   UNL     1      -5.491  -3.324   5.425  1.00  0.00     0.179 C 
HETATM    2  C   UNL     1      -7.252  -2.799   3.666  1.00  0.00     0.187 C 
HETATM    3  C   UNL     1      -7.002  -3.102   5.157  1.00  0.00     0.186 C 
HETATM    4  C   UNL     1      -5.168  -1.328   4.014  1.00  0.00     0.296 C 
HETATM    5  O   UNL     1      -4.654  -2.550   4.554  1.00  0.00    -0.349 OA
HETATM    6  C   UNL     1      -6.527  -1.490   3.299  1.00  0.00     0.303 C 
ENDROOT
BRANCH   3   7
HETATM    7  O   UNL     1      -7.877  -4.117   5.656  1.00  0.00    -0.349 OA
BRANCH   7   8
HETATM    8  C   UNL     1      -8.597  -3.841   6.850  1.00  0.00     0.282 C 
HETATM    9  C   UNL     1      -9.187  -5.132   7.429  1.00  0.00     0.157 C 
HETATM   10  C   UNL     1     -10.124  -4.751   8.589  1.00  0.00     0.173 C 
HETATM   11  C   UNL     1     -11.170  -3.735   8.075  1.00  0.00     0.186 C 
HETATM   12  C   UNL     1     -10.497  -2.522   7.388  1.00  0.00     0.179 C 
HETATM   13  O   UNL     1      -9.618  -2.983   6.369  1.00  0.00    -0.349 OA
BRANCH   9  14
HETATM   14  N   UNL     1      -8.093  -6.018   7.875  1.00  0.00    -0.208 NA
HETATM   15  H   UNL     1      -7.234  -5.734   7.425  1.00  0.00     0.140 HD
BRANCH  14  16
HETATM   16  S   UNL     1      -8.354  -7.644   7.357  1.00  0.00     0.215 S 
HETATM   17  O   UNL     1      -8.301  -8.737   8.632  1.00  0.00    -0.211 OA
HETATM   18  O   UNL     1      -9.830  -7.755   6.563  1.00  0.00    -0.211 OA
BRANCH  16  19
HETATM   19  C   UNL     1      -7.035  -8.052   6.189  1.00  0.00     0.134 C 
HETATM   20  C   UNL     1      -6.062  -6.882   6.006  1.00  0.00     0.024 C 
HETATM   21  C   UNL     1      -4.930  -7.232   5.036  1.00  0.00     0.018 C 
HETATM   22  C   UNL     1      -5.481  -7.644   3.667  1.00  0.00     0.240 C 
HETATM   23  C   UNL     1      -6.448  -8.826   3.836  1.00  0.00     0.032 C 
HETATM   24  C   UNL     1      -7.576  -8.500   4.822  1.00  0.00     0.018 C 
BRANCH  22  25
HETATM   25  N   UNL     1      -4.368  -7.969   2.750  1.00  0.00     0.133 N 
HETATM   26  C   UNL     1      -4.756  -8.111   1.329  1.00  0.00     0.352 C 
HETATM   27  O   UNL     1      -3.826  -8.671   0.429  1.00  0.00    -0.189 OA
HETATM   28  C   UNL     1      -5.319  -6.817   0.730  1.00  0.00     0.085 C 
HETATM   29  H   UNL     1      -3.938  -8.831   3.055  1.00  0.00     0.320 HD
ENDBRANCH  22  25
ENDBRANCH  16  19
ENDBRANCH  14  16
ENDBRANCH   9  14
BRANCH  10  30
HETATM   30  O   UNL     1      -9.322  -4.248   9.642  1.00  0.00    -0.391 OA
HETATM   31  H   UNL     1      -8.815  -4.975  10.010  1.00  0.00     0.210 HD
ENDBRANCH  10  30
BRANCH  11  32
HETATM   32  O   UNL     1     -12.157  -3.415   9.062  1.00  0.00    -0.349 OA
BRANCH  32  33
HETATM   33  C   UNL     1     -11.803  -2.470  10.065  1.00  0.00     0.281 C 
HETATM   34  O   UNL     1     -12.602  -1.359   9.699  1.00  0.00    -0.352 OA
HETATM   35  C   UNL     1     -12.360  -0.231  10.526  1.00  0.00     0.150 C 
HETATM   36  C   UNL     1     -12.771  -0.565  11.971  1.00  0.00     0.067 C 
HETATM   37  C   UNL     1     -12.048  -1.825  12.474  1.00  0.00     0.144 C 
HETATM   38  C   UNL     1     -12.178  -2.983  11.464  1.00  0.00     0.155 C 
BRANCH  35  39
HETATM   39  C   UNL     1     -13.162   0.964   9.998  1.00  0.00     0.196 C 
BRANCH  39  40
HETATM   40  O   UNL     1     -13.367   0.833   8.607  1.00  0.00    -0.398 OA
HETATM   41  H   UNL     1     -12.519   0.670   8.188  1.00  0.00     0.209 HD
ENDBRANCH  39  40
ENDBRANCH  35  39
BRANCH  37  42
HETATM   42  O   UNL     1     -10.682  -1.543  12.706  1.00  0.00    -0.394 OA
HETATM   43  H   UNL     1     -10.548  -1.436  13.650  1.00  0.00     0.210 HD
ENDBRANCH  37  42
BRANCH  38  44
HETATM   44  N   UNL     1     -11.305  -4.119  11.822  1.00  0.00    -0.208 NA
HETATM   45  H   UNL     1     -10.680  -4.308  11.052  1.00  0.00     0.140 HD
BRANCH  44  46
HETATM   46  S   UNL     1     -12.182  -5.588  12.053  1.00  0.00     0.215 S 
HETATM   47  O   UNL     1     -13.750  -5.508  11.456  1.00  0.00    -0.211 OA
HETATM   48  O   UNL     1     -11.353  -6.862  11.338  1.00  0.00    -0.211 OA
BRANCH  46  49
HETATM   49  C   UNL     1     -12.269  -5.871  13.838  1.00  0.00     0.134 C 
HETATM   50  C   UNL     1     -13.674  -5.582  14.385  1.00  0.00     0.024 C 
HETATM   51  C   UNL     1     -13.763  -5.831  15.894  1.00  0.00     0.018 C 
HETATM   52  C   UNL     1     -12.732  -4.992  16.663  1.00  0.00     0.240 C 
HETATM   53  C   UNL     1     -11.325  -5.290  16.131  1.00  0.00     0.032 C 
HETATM   54  C   UNL     1     -11.227  -5.057  14.618  1.00  0.00     0.018 C 
BRANCH  52  55
HETATM   55  N   UNL     1     -12.796  -5.255  18.118  1.00  0.00     0.133 N 
HETATM   56  C   UNL     1     -14.059  -4.818  18.752  1.00  0.00     0.352 C 
HETATM   57  C   UNL     1     -14.274  -3.305  18.664  1.00  0.00     0.085 C 
HETATM   58  O   UNL     1     -14.360  -5.255  20.059  1.00  0.00    -0.189 OA
HETATM   59  H   UNL     1     -12.679  -6.246  18.273  1.00  0.00     0.320 HD
ENDBRANCH  52  55
ENDBRANCH  46  49
ENDBRANCH  44  46
ENDBRANCH  38  44
ENDBRANCH  32  33
ENDBRANCH  11  32
BRANCH  12  60
HETATM   60  C   UNL     1     -11.521  -1.609   6.699  1.00  0.00     0.198 C 
BRANCH  60  61
HETATM   61  O   UNL     1     -11.368  -0.283   7.158  1.00  0.00    -0.398 OA
HETATM   62  H   UNL     1     -12.193   0.186   7.013  1.00  0.00     0.209 HD
ENDBRANCH  60  61
ENDBRANCH  12  60
ENDBRANCH   7   8
ENDBRANCH   3   7
BRANCH   1  63
HETATM   63  C   UNL     1      -5.153  -3.090   6.905  1.00  0.00     0.198 C 
BRANCH  63  64
HETATM   64  O   UNL     1      -3.788  -3.363   7.135  1.00  0.00    -0.398 OA
HETATM   65  H   UNL     1      -3.445  -2.709   7.748  1.00  0.00     0.209 HD
ENDBRANCH  63  64
ENDBRANCH   1  63
BRANCH   2  66
HETATM   66  O   UNL     1      -6.797  -3.842   2.823  1.00  0.00    -0.391 OA
HETATM   67  H   UNL     1      -7.543  -4.168   2.314  1.00  0.00     0.210 HD
ENDBRANCH   2  66
BRANCH   6  68
HETATM   68  N   UNL     1      -6.361  -1.372   1.839  1.00  0.00     0.090 N 
HETATM   69  H   UNL     1      -5.755  -2.108   1.506  1.00  0.00     0.313 HD
HETATM   70  H   UNL     1      -7.263  -1.448   1.391  1.00  0.00     0.313 HD
ENDBRANCH   6  68
BRANCH   4  71
HETATM   71  O   UNL     1      -5.292  -0.505   5.173  1.00  0.00    -0.348 OA
BRANCH  71  72
HETATM   72  C   UNL     1      -5.718   0.847   4.986  1.00  0.00     0.186 C 
HETATM   73  C   UNL     1      -6.777   1.332   6.002  1.00  0.00     0.179 C 
HETATM   74  O   UNL     1      -7.238   2.612   5.595  1.00  0.00    -0.349 OA
HETATM   75  C   UNL     1      -6.217   3.595   5.583  1.00  0.00     0.282 C 
HETATM   76  C   UNL     1      -5.138   3.260   4.540  1.00  0.00     0.157 C 
HETATM   77  C   UNL     1      -4.562   1.864   4.852  1.00  0.00     0.173 C 
BRANCH  73  78
HETATM   78  C   UNL     1      -7.995   0.399   6.043  1.00  0.00     0.198 C 
BRANCH  78  79
HETATM   79  O   UNL     1      -8.715   0.591   7.242  1.00  0.00    -0.398 OA
HETATM   80  H   UNL     1      -8.149   1.051   7.866  1.00  0.00     0.209 HD
ENDBRANCH  78  79
ENDBRANCH  73  78
BRANCH  75  81
HETATM   81  O   UNL     1      -6.954   4.750   5.198  1.00  0.00    -0.349 OA
BRANCH  81  82
HETATM   82  C   UNL     1      -7.892   5.290   6.134  1.00  0.00     0.186 C 
HETATM   83  C   UNL     1      -7.681   6.772   6.527  1.00  0.00     0.176 C 
HETATM   84  O   UNL     1      -8.628   7.146   7.526  1.00  0.00    -0.379 OA
HETATM   85  C   UNL     1      -9.988   6.962   7.153  1.00  0.00     0.191 C 
HETATM   86  C   UNL     1     -10.275   5.480   6.861  1.00  0.00     0.126 C 
HETATM   87  C   UNL     1      -9.352   5.014   5.721  1.00  0.00     0.170 C 
BRANCH  83  88
HETATM   88  C   UNL     1      -6.289   7.002   7.133  1.00  0.00     0.198 C 
BRANCH  88  89
HETATM   89  O   UNL     1      -5.302   6.913   6.128  1.00  0.00    -0.398 OA
HETATM   90  H   UNL     1      -5.646   7.316   5.328  1.00  0.00     0.209 HD
ENDBRANCH  88  89
ENDBRANCH  83  88
BRANCH  86  91
HETATM   91  N   UNL     1     -11.706   5.288   6.542  1.00  0.00    -0.210 NA
HETATM   92  H   UNL     1     -12.258   5.805   7.211  1.00  0.00     0.140 HD
BRANCH  91  93
HETATM   93  S   UNL     1     -12.182   3.636   6.746  1.00  0.00     0.215 S 
HETATM   94  O   UNL     1     -11.044   2.734   7.590  1.00  0.00    -0.211 OA
HETATM   95  O   UNL     1     -13.667   3.544   7.528  1.00  0.00    -0.211 OA
BRANCH  93  96
HETATM   96  C   UNL     1     -12.372   2.893   5.108  1.00  0.00     0.134 C 
HETATM   97  C   UNL     1     -11.119   2.126   4.668  1.00  0.00     0.024 C 
HETATM   98  C   UNL     1     -11.317   1.479   3.294  1.00  0.00     0.018 C 
HETATM   99  C   UNL     1     -11.678   2.518   2.222  1.00  0.00     0.240 C 
HETATM  100  C   UNL     1     -12.933   3.286   2.653  1.00  0.00     0.032 C 
HETATM  101  C   UNL     1     -12.760   3.925   4.038  1.00  0.00     0.018 C 
BRANCH  99 102
HETATM  102  N   UNL     1     -11.898   1.882   0.907  1.00  0.00     0.133 N 
HETATM  103  C   UNL     1     -10.693   1.227   0.357  1.00  0.00     0.352 C 
HETATM  104  C   UNL     1      -9.592   2.234   0.016  1.00  0.00     0.085 C 
HETATM  105  O   UNL     1     -10.831   0.313  -0.708  1.00  0.00    -0.189 OA
HETATM  106  H   UNL     1     -12.633   1.195   0.998  1.00  0.00     0.320 HD
ENDBRANCH  99 102
ENDBRANCH  93  96
ENDBRANCH  91  93
ENDBRANCH  86  91
BRANCH  87 107
HETATM  107  O   UNL     1      -9.738   5.680   4.534  1.00  0.00    -0.391 OA
HETATM  108  H   UNL     1     -10.575   6.123   4.692  1.00  0.00     0.210 HD
ENDBRANCH  87 107
ENDBRANCH  81  82
ENDBRANCH  75  81
BRANCH  76 109
HETATM  109  N   UNL     1      -4.084   4.293   4.574  1.00  0.00    -0.208 NA
HETATM  110  H   UNL     1      -4.317   4.982   5.275  1.00  0.00     0.140 HD
BRANCH 109 111
HETATM  111  S   UNL     1      -3.984   5.185   3.102  1.00  0.00     0.215 S 
HETATM  112  O   UNL     1      -5.047   4.624   1.927  1.00  0.00    -0.211 OA
HETATM  113  O   UNL     1      -4.273   6.809   3.419  1.00  0.00    -0.211 OA
BRANCH 111 114
HETATM  114  C   UNL     1      -2.288   4.998   2.500  1.00  0.00     0.134 C 
HETATM  115  C   UNL     1      -2.032   5.853   1.252  1.00  0.00     0.024 C 
HETATM  116  C   UNL     1      -0.597   5.697   0.738  1.00  0.00     0.018 C 
HETATM  117  C   UNL     1      -0.272   4.235   0.418  1.00  0.00     0.240 C 
HETATM  118  C   UNL     1      -0.509   3.365   1.662  1.00  0.00     0.032 C 
HETATM  119  C   UNL     1      -1.932   3.531   2.210  1.00  0.00     0.018 C 
BRANCH 117 120
HETATM  120  N   UNL     1       1.121   4.121  -0.060  1.00  0.00     0.133 N 
HETATM  121  C   UNL     1       1.269   3.285  -1.270  1.00  0.00     0.352 C 
HETATM  122  C   UNL     1       0.772   4.010  -2.526  1.00  0.00     0.085 C 
HETATM  123  O   UNL     1       2.522   2.695  -1.543  1.00  0.00    -0.189 OA
HETATM  124  H   UNL     1       1.685   3.733   0.682  1.00  0.00     0.320 HD
ENDBRANCH 117 120
ENDBRANCH 111 114
ENDBRANCH 109 111
ENDBRANCH  76 109
BRANCH  77 125
HETATM  125  O   UNL     1      -3.779   1.976   6.026  1.00  0.00    -0.391 OA
HETATM  126  H   UNL     1      -4.316   2.382   6.711  1.00  0.00     0.210 HD
ENDBRANCH  77 125
ENDBRANCH  71  72
ENDBRANCH   4  71
TORSDOF 40
ENDMDL
