MODEL 1
REMARK VINA RESULT:      -6.5      0.000      0.000
REMARK WARNING: 32 MAX_TORS EXCEEDED!!!
REMARK  41 active torsions:
REMARK  status: ('A' for Active; 'I' for Inactive)
REMARK    1  A    between atoms: C_1  and  O_29 
REMARK    2  A    between atoms: C_2  and  C_6 
REMARK    3  A    between atoms: C_3  and  O_9 
REMARK    4  A    between atoms: C_4  and  O_88 
REMARK    5  A    between atoms: C_5  and  O_11 
REMARK    6  A    between atoms: C_6  and  O_7 
REMARK    7  A    between atoms: O_7  and  C_72 
REMARK    8  A    between atoms: O_11  and  C_19 
REMARK    9  A    between atoms: O_13  and  C_17 
REMARK   10  A    between atoms: C_15  and  C_22 
REMARK   11  A    between atoms: O_16  and  C_22 
REMARK   12  A    between atoms: O_16  and  C_78 
REMARK   13  A    between atoms: O_18  and  C_21 
REMARK   14  A    between atoms: O_18  and  C_41 
REMARK   15  A    between atoms: O_20  and  C_23 
REMARK   16  A    between atoms: O_25  and  C_28 
REMARK   17  A    between atoms: C_27  and  C_33 
REMARK   18  A    between atoms: O_29  and  C_32 
REMARK   19  A    between atoms: C_30  and  O_52 
REMARK   20  A    between atoms: O_31  and  C_34 
REMARK   21  A    between atoms: C_33  and  O_57 
REMARK   22  A    between atoms: O_36  and  C_40 
REMARK   23  A    between atoms: C_38  and  C_44 
REMARK   24  A    between atoms: O_39  and  C_44 
REMARK   25  A    between atoms: O_39  and  C_83 
REMARK   26  A    between atoms: O_42  and  C_45 
REMARK   27  A    between atoms: O_47  and  C_51 
REMARK   28  A    between atoms: C_49  and  C_55 
REMARK   29  A    between atoms: O_50  and  C_55 
REMARK   30  A    between atoms: O_50  and  C_61 
REMARK   31  A    between atoms: O_52  and  C_54 
REMARK   32  A    between atoms: C_56  and  O_86 
REMARK   33  A    between atoms: O_57  and  C_67 
REMARK   34  A    between atoms: C_61  and  C_62 
REMARK   35  A    between atoms: C_62  and  O_64 
REMARK   36  A    between atoms: C_67  and  C_68 
REMARK   37  A    between atoms: C_68  and  O_69 
REMARK   38  A    between atoms: C_72  and  C_73 
REMARK   39  A    between atoms: C_73  and  O_74 
REMARK   40  A    between atoms: C_78  and  O_79 
REMARK   41  A    between atoms: C_83  and  O_84 
ROOT
HETATM    1  C   UNL     1      16.894 -18.184  14.479  1.00  0.00     0.187 C 
HETATM    2  C   UNL     1      16.239 -17.756  13.135  1.00  0.00     0.180 C 
HETATM    3  C   UNL     1      16.619 -19.680  14.751  1.00  0.00     0.183 C 
HETATM    4  C   UNL     1      16.947 -20.537  13.503  1.00  0.00     0.204 C 
HETATM    5  C   UNL     1      16.139 -19.977  12.320  1.00  0.00     0.292 C 
HETATM    6  O   UNL     1      16.558 -18.644  12.064  1.00  0.00    -0.348 OA
ENDROOT
BRANCH   1   7
HETATM    7  O   UNL     1      18.300 -17.947  14.426  1.00  0.00    -0.348 OA
BRANCH   7   8
HETATM    8  C   UNL     1      18.722 -17.041  15.446  1.00  0.00     0.292 C 
HETATM    9  O   UNL     1      17.617 -16.566  16.198  1.00  0.00    -0.348 OA
HETATM   10  C   UNL     1      18.029 -15.862  17.387  1.00  0.00     0.180 C 
HETATM   11  C   UNL     1      19.421 -15.133  17.262  1.00  0.00     0.187 C 
HETATM   12  C   UNL     1      19.561 -14.633  15.812  1.00  0.00     0.183 C 
HETATM   13  C   UNL     1      19.503 -15.845  14.828  1.00  0.00     0.204 C 
BRANCH  10  14
HETATM   14  C   UNL     1      17.971 -16.793  18.619  1.00  0.00     0.203 C 
BRANCH  14  15
HETATM   15  O   UNL     1      16.668 -16.938  19.141  1.00  0.00    -0.370 OA
BRANCH  15  16
HETATM   16  C   UNL     1      16.707 -16.853  20.538  1.00  0.00     0.262 C 
BRANCH  16  17
HETATM   17  C   UNL     1      15.531 -16.064  21.013  1.00  0.00     0.321 C 
HETATM   18  O   UNL     1      15.192 -16.117  22.184  1.00  0.00    -0.260 OA
BRANCH  17  19
HETATM   19  O   UNL     1      14.849 -15.281  20.157  1.00  0.00    -0.147 OA
HETATM   20 Na   UNL     1      15.703 -14.533  18.497  1.00  0.00     0.000 Na
ENDBRANCH  17  19
ENDBRANCH  16  17
ENDBRANCH  15  16
ENDBRANCH  14  15
ENDBRANCH  10  14
BRANCH  11  21
HETATM   21  O   UNL     1      19.483 -14.010  18.139  1.00  0.00    -0.348 OA
BRANCH  21  22
HETATM   22  C   UNL     1      18.313 -13.794  18.916  1.00  0.00     0.292 C 
HETATM   23  O   UNL     1      17.604 -12.645  18.426  1.00  0.00    -0.351 OA
HETATM   24  C   UNL     1      17.720 -11.507  19.256  1.00  0.00     0.151 C 
HETATM   25  C   UNL     1      17.128 -11.765  20.665  1.00  0.00     0.068 C 
HETATM   26  C   UNL     1      17.461 -13.190  21.166  1.00  0.00     0.154 C 
HETATM   27  C   UNL     1      18.686 -13.759  20.433  1.00  0.00     0.202 C 
BRANCH  24  28
HETATM   28  C   UNL     1      17.025 -10.300  18.604  1.00  0.00     0.200 C 
BRANCH  28  29
HETATM   29  O   UNL     1      16.330 -10.661  17.424  1.00  0.00    -0.379 OA
BRANCH  29  30
HETATM   30  C   UNL     1      15.034 -10.088  17.391  1.00  0.00     0.281 C 
BRANCH  30  31
HETATM   31  C   UNL     1      14.037 -11.094  16.896  1.00  0.00     0.313 C 
HETATM   32  O   UNL     1      13.699 -11.118  15.723  1.00  0.00    -0.260 OA
BRANCH  31  33
HETATM   33  O   UNL     1      13.515 -11.990  17.754  1.00  0.00    -0.148 OA
HETATM   34 Na   UNL     1      14.406 -12.325  19.531  1.00  0.00     0.000 Na
ENDBRANCH  31  33
ENDBRANCH  30  31
ENDBRANCH  29  30
ENDBRANCH  28  29
ENDBRANCH  24  28
BRANCH  26  35
HETATM   35  O   UNL     1      17.575 -13.240  22.565  1.00  0.00    -0.393 OA
HETATM   36  H   UNL     1      18.527 -13.416  22.783  1.00  0.00     0.210 HD
ENDBRANCH  26  35
BRANCH  27  37
HETATM   37  O   UNL     1      19.820 -12.956  20.655  1.00  0.00    -0.388 OA
HETATM   38  H   UNL     1      20.568 -13.362  20.145  1.00  0.00     0.210 HD
ENDBRANCH  27  37
ENDBRANCH  21  22
ENDBRANCH  11  21
BRANCH  12  39
HETATM   39  O   UNL     1      18.569 -13.666  15.534  1.00  0.00    -0.390 OA
HETATM   40  H   UNL     1      18.886 -13.065  14.814  1.00  0.00     0.210 HD
ENDBRANCH  12  39
BRANCH  13  41
HETATM   41  O   UNL     1      19.018 -15.444  13.569  1.00  0.00    -0.388 OA
HETATM   42  H   UNL     1      19.717 -14.892  13.132  1.00  0.00     0.210 HD
ENDBRANCH  13  41
ENDBRANCH   7   8
ENDBRANCH   1   7
BRANCH   2  43
HETATM   43  C   UNL     1      14.708 -17.480  13.232  1.00  0.00     0.203 C 
BRANCH  43  44
HETATM   44  O   UNL     1      14.365 -16.108  13.183  1.00  0.00    -0.370 OA
BRANCH  44  45
HETATM   45  C   UNL     1      14.234 -15.586  14.482  1.00  0.00     0.262 C 
BRANCH  45  46
HETATM   46  C   UNL     1      15.351 -14.653  14.818  1.00  0.00     0.321 C 
HETATM   47  O   UNL     1      16.230 -14.404  14.008  1.00  0.00    -0.260 OA
BRANCH  46  48
HETATM   48  O   UNL     1      15.391 -14.095  16.042  1.00  0.00    -0.147 OA
HETATM   49 Na   UNL     1      16.695 -12.594  16.385  1.00  0.00     0.000 Na
ENDBRANCH  46  48
ENDBRANCH  45  46
ENDBRANCH  44  45
ENDBRANCH  43  44
ENDBRANCH   2  43
BRANCH   3  50
HETATM   50  O   UNL     1      17.353 -20.107  15.869  1.00  0.00    -0.390 OA
HETATM   51  H   UNL     1      16.699 -20.270  16.599  1.00  0.00     0.210 HD
ENDBRANCH   3  50
BRANCH   4  52
HETATM   52  O   UNL     1      18.318 -20.485  13.194  1.00  0.00    -0.388 OA
HETATM   53  H   UNL     1      18.678 -21.401  13.324  1.00  0.00     0.210 HD
ENDBRANCH   4  52
BRANCH   5  54
HETATM   54  O   UNL     1      16.375 -20.753  11.151  1.00  0.00    -0.348 OA
BRANCH  54  55
HETATM   55  C   UNL     1      15.187 -21.047  10.412  1.00  0.00     0.187 C 
HETATM   56  C   UNL     1      13.905 -20.815  11.276  1.00  0.00     0.180 C 
HETATM   57  O   UNL     1      12.838 -20.149  10.606  1.00  0.00    -0.348 OA
HETATM   58  C   UNL     1      12.569 -20.539   9.272  1.00  0.00     0.292 C 
HETATM   59  C   UNL     1      13.855 -20.604   8.389  1.00  0.00     0.204 C 
HETATM   60  C   UNL     1      15.120 -20.169   9.158  1.00  0.00     0.183 C 
BRANCH  56  61
HETATM   61  C   UNL     1      13.402 -22.109  11.947  1.00  0.00     0.208 C 
BRANCH  61  62
HETATM   62  O   UNL     1      14.088 -22.377  13.159  1.00  0.00    -0.327 OA
BRANCH  62  63
HETATM   63  C   UNL     1      13.271 -22.597  14.302  1.00  0.00     0.339 C 
HETATM   64  C   UNL     1      13.472 -24.033  14.762  1.00  0.00     0.115 C 
HETATM   65  O   UNL     1      13.683 -21.732  15.315  1.00  0.00    -0.163 OA
BRANCH  63  66
HETATM   66  O   UNL     1      11.903 -22.393  14.073  1.00  0.00    -0.163 OA
HETATM   67 Na   UNL     1      10.978 -23.143  15.726  1.00  0.00     0.000 Na
ENDBRANCH  63  66
ENDBRANCH  62  63
ENDBRANCH  61  62
ENDBRANCH  56  61
BRANCH  58  68
HETATM   68  O   UNL     1      11.678 -19.558   8.752  1.00  0.00    -0.348 OA
BRANCH  68  69
HETATM   69  C   UNL     1      10.331 -19.997   8.649  1.00  0.00     0.187 C 
HETATM   70  C   UNL     1       9.400 -19.154   9.598  1.00  0.00     0.177 C 
HETATM   71  O   UNL     1       8.006 -19.182   9.253  1.00  0.00    -0.378 OA
HETATM   72  C   UNL     1       7.659 -20.321   8.499  1.00  0.00     0.202 C 
HETATM   73  C   UNL     1       8.356 -20.312   7.111  1.00  0.00     0.173 C 
HETATM   74  C   UNL     1       9.821 -19.789   7.211  1.00  0.00     0.180 C 
BRANCH  70  75
HETATM   75  C   UNL     1       9.587 -19.535  11.077  1.00  0.00     0.208 C 
BRANCH  75  76
HETATM   76  O   UNL     1       8.358 -19.891  11.690  1.00  0.00    -0.327 OA
BRANCH  76  77
HETATM   77  C   UNL     1       8.267 -21.228  12.175  1.00  0.00     0.339 C 
HETATM   78  C   UNL     1       6.906 -21.795  11.790  1.00  0.00     0.115 C 
HETATM   79  O   UNL     1       9.259 -21.984  11.550  1.00  0.00    -0.163 OA
BRANCH  77  80
HETATM   80  O   UNL     1       8.436 -21.342  13.563  1.00  0.00    -0.163 OA
HETATM   81 Na   UNL     1      10.340 -20.707  13.920  1.00  0.00     0.000 Na
ENDBRANCH  77  80
ENDBRANCH  76  77
ENDBRANCH  75  76
ENDBRANCH  70  75
BRANCH  73  82
HETATM   82  O   UNL     1       7.633 -19.608   6.130  1.00  0.00    -0.391 OA
HETATM   83  H   UNL     1       7.468 -18.688   6.466  1.00  0.00     0.210 HD
ENDBRANCH  73  82
BRANCH  74  84
HETATM   84  O   UNL     1       9.944 -18.431   6.843  1.00  0.00    -0.390 OA
HETATM   85  H   UNL     1       9.075 -18.099   6.504  1.00  0.00     0.210 HD
ENDBRANCH  74  84
ENDBRANCH  68  69
ENDBRANCH  58  68
BRANCH  59  86
HETATM   86  O   UNL     1      13.721 -19.928   7.164  1.00  0.00    -0.388 OA
HETATM   87  H   UNL     1      14.023 -18.994   7.301  1.00  0.00     0.210 HD
ENDBRANCH  59  86
BRANCH  60  88
HETATM   88  O   UNL     1      15.048 -18.807   9.497  1.00  0.00    -0.390 OA
HETATM   89  H   UNL     1      15.350 -18.298   8.701  1.00  0.00     0.210 HD
ENDBRANCH  60  88
ENDBRANCH  54  55
ENDBRANCH   5  54
TORSDOF 41
ENDMDL
MODEL 2
REMARK VINA RESULT:      -6.5      1.917      3.615
REMARK WARNING: 32 MAX_TORS EXCEEDED!!!
REMARK  41 active torsions:
REMARK  status: ('A' for Active; 'I' for Inactive)
REMARK    1  A    between atoms: C_1  and  O_29 
REMARK    2  A    between atoms: C_2  and  C_6 
REMARK    3  A    between atoms: C_3  and  O_9 
REMARK    4  A    between atoms: C_4  and  O_88 
REMARK    5  A    between atoms: C_5  and  O_11 
REMARK    6  A    between atoms: C_6  and  O_7 
REMARK    7  A    between atoms: O_7  and  C_72 
REMARK    8  A    between atoms: O_11  and  C_19 
REMARK    9  A    between atoms: O_13  and  C_17 
REMARK   10  A    between atoms: C_15  and  C_22 
REMARK   11  A    between atoms: O_16  and  C_22 
REMARK   12  A    between atoms: O_16  and  C_78 
REMARK   13  A    between atoms: O_18  and  C_21 
REMARK   14  A    between atoms: O_18  and  C_41 
REMARK   15  A    between atoms: O_20  and  C_23 
REMARK   16  A    between atoms: O_25  and  C_28 
REMARK   17  A    between atoms: C_27  and  C_33 
REMARK   18  A    between atoms: O_29  and  C_32 
REMARK   19  A    between atoms: C_30  and  O_52 
REMARK   20  A    between atoms: O_31  and  C_34 
REMARK   21  A    between atoms: C_33  and  O_57 
REMARK   22  A    between atoms: O_36  and  C_40 
REMARK   23  A    between atoms: C_38  and  C_44 
REMARK   24  A    between atoms: O_39  and  C_44 
REMARK   25  A    between atoms: O_39  and  C_83 
REMARK   26  A    between atoms: O_42  and  C_45 
REMARK   27  A    between atoms: O_47  and  C_51 
REMARK   28  A    between atoms: C_49  and  C_55 
REMARK   29  A    between atoms: O_50  and  C_55 
REMARK   30  A    between atoms: O_50  and  C_61 
REMARK   31  A    between atoms: O_52  and  C_54 
REMARK   32  A    between atoms: C_56  and  O_86 
REMARK   33  A    between atoms: O_57  and  C_67 
REMARK   34  A    between atoms: C_61  and  C_62 
REMARK   35  A    between atoms: C_62  and  O_64 
REMARK   36  A    between atoms: C_67  and  C_68 
REMARK   37  A    between atoms: C_68  and  O_69 
REMARK   38  A    between atoms: C_72  and  C_73 
REMARK   39  A    between atoms: C_73  and  O_74 
REMARK   40  A    between atoms: C_78  and  O_79 
REMARK   41  A    between atoms: C_83  and  O_84 
ROOT
HETATM    1  C   UNL     1      15.530 -17.464  17.232  1.00  0.00     0.187 C 
HETATM    2  C   UNL     1      15.818 -16.683  15.918  1.00  0.00     0.180 C 
HETATM    3  C   UNL     1      15.119 -18.917  16.907  1.00  0.00     0.183 C 
HETATM    4  C   UNL     1      16.112 -19.562  15.908  1.00  0.00     0.204 C 
HETATM    5  C   UNL     1      16.183 -18.658  14.664  1.00  0.00     0.292 C 
HETATM    6  O   UNL     1      16.698 -17.390  15.043  1.00  0.00    -0.348 OA
ENDROOT
BRANCH   1   7
HETATM    7  O   UNL     1      16.694 -17.457  18.059  1.00  0.00    -0.348 OA
BRANCH   7   8
HETATM    8  C   UNL     1      16.893 -16.188  18.681  1.00  0.00     0.292 C 
HETATM    9  O   UNL     1      18.257 -15.993  19.022  1.00  0.00    -0.348 OA
HETATM   10  C   UNL     1      18.533 -14.632  19.408  1.00  0.00     0.180 C 
HETATM   11  C   UNL     1      17.316 -13.885  20.076  1.00  0.00     0.187 C 
HETATM   12  C   UNL     1      16.520 -14.921  20.892  1.00  0.00     0.183 C 
HETATM   13  C   UNL     1      16.000 -16.051  19.947  1.00  0.00     0.204 C 
BRANCH  10  14
HETATM   14  C   UNL     1      19.120 -13.837  18.219  1.00  0.00     0.203 C 
BRANCH  14  15
HETATM   15  O   UNL     1      19.619 -14.666  17.194  1.00  0.00    -0.370 OA
BRANCH  15  16
HETATM   16  C   UNL     1      18.933 -14.407  16.001  1.00  0.00     0.262 C 
BRANCH  16  17
HETATM   17  C   UNL     1      19.437 -15.326  14.937  1.00  0.00     0.321 C 
HETATM   18  O   UNL     1      20.317 -16.132  15.192  1.00  0.00    -0.260 OA
BRANCH  17  19
HETATM   19  O   UNL     1      18.913 -15.281  13.698  1.00  0.00    -0.147 OA
HETATM   20 Na   UNL     1      17.791 -16.781  12.968  1.00  0.00     0.000 Na
ENDBRANCH  17  19
ENDBRANCH  16  17
ENDBRANCH  15  16
ENDBRANCH  14  15
ENDBRANCH  10  14
BRANCH  11  21
HETATM   21  O   UNL     1      17.774 -12.863  20.959  1.00  0.00    -0.348 OA
BRANCH  21  22
HETATM   22  C   UNL     1      17.147 -11.600  20.785  1.00  0.00     0.292 C 
HETATM   23  O   UNL     1      16.485 -11.552  19.511  1.00  0.00    -0.351 OA
HETATM   24  C   UNL     1      17.151 -10.758  18.550  1.00  0.00     0.151 C 
HETATM   25  C   UNL     1      17.247  -9.278  19.000  1.00  0.00     0.068 C 
HETATM   26  C   UNL     1      17.543  -9.165  20.514  1.00  0.00     0.154 C 
HETATM   27  C   UNL     1      18.181 -10.458  21.048  1.00  0.00     0.202 C 
BRANCH  24  28
HETATM   28  C   UNL     1      16.435 -10.852  17.193  1.00  0.00     0.200 C 
BRANCH  28  29
HETATM   29  O   UNL     1      15.390  -9.904  17.077  1.00  0.00    -0.379 OA
BRANCH  29  30
HETATM   30  C   UNL     1      14.167 -10.523  16.716  1.00  0.00     0.281 C 
BRANCH  30  31
HETATM   31  C   UNL     1      13.118 -10.235  17.749  1.00  0.00     0.313 C 
HETATM   32  O   UNL     1      13.425  -9.827  18.859  1.00  0.00    -0.260 OA
BRANCH  31  33
HETATM   33  O   UNL     1      11.819 -10.418  17.446  1.00  0.00    -0.148 OA
HETATM   34 Na   UNL     1      11.118 -12.275  17.092  1.00  0.00     0.000 Na
ENDBRANCH  31  33
ENDBRANCH  30  31
ENDBRANCH  29  30
ENDBRANCH  28  29
ENDBRANCH  24  28
BRANCH  26  35
HETATM   35  O   UNL     1      18.283  -8.011  20.819  1.00  0.00    -0.393 OA
HETATM   36  H   UNL     1      19.189  -8.123  20.430  1.00  0.00     0.210 HD
ENDBRANCH  26  35
BRANCH  27  37
HETATM   37  O   UNL     1      19.400 -10.720  20.397  1.00  0.00    -0.388 OA
HETATM   38  H   UNL     1      20.122 -10.353  20.971  1.00  0.00     0.210 HD
ENDBRANCH  27  37
ENDBRANCH  21  22
ENDBRANCH  11  21
BRANCH  12  39
HETATM   39  O   UNL     1      17.316 -15.424  21.945  1.00  0.00    -0.390 OA
HETATM   40  H   UNL     1      18.267 -15.426  21.668  1.00  0.00     0.210 HD
ENDBRANCH  12  39
BRANCH  13  41
HETATM   41  O   UNL     1      15.833 -17.256  20.654  1.00  0.00    -0.388 OA
HETATM   42  H   UNL     1      16.726 -17.561  20.959  1.00  0.00     0.210 HD
ENDBRANCH  13  41
ENDBRANCH   7   8
ENDBRANCH   1   7
BRANCH   2  43
HETATM   43  C   UNL     1      14.539 -16.180  15.182  1.00  0.00     0.203 C 
BRANCH  43  44
HETATM   44  O   UNL     1      14.443 -14.772  15.089  1.00  0.00    -0.370 OA
BRANCH  44  45
HETATM   45  C   UNL     1      13.213 -14.326  15.605  1.00  0.00     0.262 C 
BRANCH  45  46
HETATM   46  C   UNL     1      13.239 -14.237  17.096  1.00  0.00     0.321 C 
HETATM   47  O   UNL     1      12.235 -14.448  17.757  1.00  0.00    -0.260 OA
BRANCH  46  48
HETATM   48  O   UNL     1      14.388 -13.904  17.711  1.00  0.00    -0.147 OA
HETATM   49 Na   UNL     1      16.067 -13.725  16.607  1.00  0.00     0.000 Na
ENDBRANCH  46  48
ENDBRANCH  45  46
ENDBRANCH  44  45
ENDBRANCH  43  44
ENDBRANCH   2  43
BRANCH   3  50
HETATM   50  O   UNL     1      15.031 -19.666  18.092  1.00  0.00    -0.390 OA
HETATM   51  H   UNL     1      15.893 -19.551  18.570  1.00  0.00     0.210 HD
ENDBRANCH   3  50
BRANCH   4  52
HETATM   52  O   UNL     1      17.396 -19.680  16.468  1.00  0.00    -0.388 OA
HETATM   53  H   UNL     1      17.834 -20.453  16.027  1.00  0.00     0.210 HD
ENDBRANCH   4  52
BRANCH   5  54
HETATM   54  O   UNL     1      17.056 -19.224  13.694  1.00  0.00    -0.348 OA
BRANCH  54  55
HETATM   55  C   UNL     1      16.371 -19.854  12.608  1.00  0.00     0.187 C 
HETATM   56  C   UNL     1      14.969 -20.386  13.049  1.00  0.00     0.180 C 
HETATM   57  O   UNL     1      13.911 -20.134  12.127  1.00  0.00    -0.348 OA
HETATM   58  C   UNL     1      14.192 -20.326  10.753  1.00  0.00     0.292 C 
HETATM   59  C   UNL     1      15.523 -19.641  10.306  1.00  0.00     0.204 C 
HETATM   60  C   UNL     1      16.197 -18.861  11.454  1.00  0.00     0.183 C 
BRANCH  56  61
HETATM   61  C   UNL     1      15.001 -21.875  13.448  1.00  0.00     0.208 C 
BRANCH  61  62
HETATM   62  O   UNL     1      13.871 -22.239  14.223  1.00  0.00    -0.327 OA
BRANCH  62  63
HETATM   63  C   UNL     1      13.278 -23.493  13.910  1.00  0.00     0.339 C 
HETATM   64  C   UNL     1      12.694 -23.407  12.507  1.00  0.00     0.115 C 
HETATM   65  O   UNL     1      14.271 -24.471  13.931  1.00  0.00    -0.163 OA
BRANCH  63  66
HETATM   66  O   UNL     1      12.258 -23.877  14.791  1.00  0.00    -0.163 OA
HETATM   67 Na   UNL     1      10.924 -22.338  14.752  1.00  0.00     0.000 Na
ENDBRANCH  63  66
ENDBRANCH  62  63
ENDBRANCH  61  62
ENDBRANCH  56  61
BRANCH  58  68
HETATM   68  O   UNL     1      13.096 -19.751  10.049  1.00  0.00    -0.348 OA
BRANCH  68  69
HETATM   69  C   UNL     1      12.281 -20.700   9.375  1.00  0.00     0.187 C 
HETATM   70  C   UNL     1      10.887 -20.068   9.007  1.00  0.00     0.177 C 
HETATM   71  O   UNL     1      10.181 -20.743   7.954  1.00  0.00    -0.378 OA
HETATM   72  C   UNL     1      10.580 -22.088   7.812  1.00  0.00     0.202 C 
HETATM   73  C   UNL     1      12.059 -22.190   7.352  1.00  0.00     0.173 C 
HETATM   74  C   UNL     1      12.951 -21.122   8.055  1.00  0.00     0.180 C 
BRANCH  70  75
HETATM   75  C   UNL     1       9.979 -19.913  10.239  1.00  0.00     0.208 C 
BRANCH  75  76
HETATM   76  O   UNL     1      10.182 -20.956  11.179  1.00  0.00    -0.327 OA
BRANCH  76  77
HETATM   77  C   UNL     1       9.889 -20.638  12.538  1.00  0.00     0.339 C 
HETATM   78  C   UNL     1       8.996 -19.403  12.568  1.00  0.00     0.115 C 
HETATM   79  O   UNL     1       9.190 -21.710  13.091  1.00  0.00    -0.163 OA
BRANCH  77  80
HETATM   80  O   UNL     1      11.026 -20.402  13.324  1.00  0.00    -0.163 OA
HETATM   81 Na   UNL     1      11.973 -18.833  12.430  1.00  0.00     0.000 Na
ENDBRANCH  77  80
ENDBRANCH  76  77
ENDBRANCH  75  76
ENDBRANCH  70  75
BRANCH  73  82
HETATM   82  O   UNL     1      12.213 -22.137   5.954  1.00  0.00    -0.391 OA
HETATM   83  H   UNL     1      12.810 -22.880   5.678  1.00  0.00     0.210 HD
ENDBRANCH  73  82
BRANCH  74  84
HETATM   84  O   UNL     1      13.189 -19.990   7.246  1.00  0.00    -0.390 OA
HETATM   85  H   UNL     1      12.351 -19.474   7.141  1.00  0.00     0.210 HD
ENDBRANCH  74  84
ENDBRANCH  68  69
ENDBRANCH  58  68
BRANCH  59  86
HETATM   86  O   UNL     1      15.382 -18.861   9.146  1.00  0.00    -0.388 OA
HETATM   87  H   UNL     1      14.542 -19.136   8.697  1.00  0.00     0.210 HD
ENDBRANCH  59  86
BRANCH  60  88
HETATM   88  O   UNL     1      15.404 -17.767  11.841  1.00  0.00    -0.390 OA
HETATM   89  H   UNL     1      16.027 -17.050  12.126  1.00  0.00     0.210 HD
ENDBRANCH  60  88
ENDBRANCH  54  55
ENDBRANCH   5  54
TORSDOF 41
ENDMDL
MODEL 3
REMARK VINA RESULT:      -6.3      2.787      5.287
REMARK WARNING: 32 MAX_TORS EXCEEDED!!!
REMARK  41 active torsions:
REMARK  status: ('A' for Active; 'I' for Inactive)
REMARK    1  A    between atoms: C_1  and  O_29 
REMARK    2  A    between atoms: C_2  and  C_6 
REMARK    3  A    between atoms: C_3  and  O_9 
REMARK    4  A    between atoms: C_4  and  O_88 
REMARK    5  A    between atoms: C_5  and  O_11 
REMARK    6  A    between atoms: C_6  and  O_7 
REMARK    7  A    between atoms: O_7  and  C_72 
REMARK    8  A    between atoms: O_11  and  C_19 
REMARK    9  A    between atoms: O_13  and  C_17 
REMARK   10  A    between atoms: C_15  and  C_22 
REMARK   11  A    between atoms: O_16  and  C_22 
REMARK   12  A    between atoms: O_16  and  C_78 
REMARK   13  A    between atoms: O_18  and  C_21 
REMARK   14  A    between atoms: O_18  and  C_41 
REMARK   15  A    between atoms: O_20  and  C_23 
REMARK   16  A    between atoms: O_25  and  C_28 
REMARK   17  A    between atoms: C_27  and  C_33 
REMARK   18  A    between atoms: O_29  and  C_32 
REMARK   19  A    between atoms: C_30  and  O_52 
REMARK   20  A    between atoms: O_31  and  C_34 
REMARK   21  A    between atoms: C_33  and  O_57 
REMARK   22  A    between atoms: O_36  and  C_40 
REMARK   23  A    between atoms: C_38  and  C_44 
REMARK   24  A    between atoms: O_39  and  C_44 
REMARK   25  A    between atoms: O_39  and  C_83 
REMARK   26  A    between atoms: O_42  and  C_45 
REMARK   27  A    between atoms: O_47  and  C_51 
REMARK   28  A    between atoms: C_49  and  C_55 
REMARK   29  A    between atoms: O_50  and  C_55 
REMARK   30  A    between atoms: O_50  and  C_61 
REMARK   31  A    between atoms: O_52  and  C_54 
REMARK   32  A    between atoms: C_56  and  O_86 
REMARK   33  A    between atoms: O_57  and  C_67 
REMARK   34  A    between atoms: C_61  and  C_62 
REMARK   35  A    between atoms: C_62  and  O_64 
REMARK   36  A    between atoms: C_67  and  C_68 
REMARK   37  A    between atoms: C_68  and  O_69 
REMARK   38  A    between atoms: C_72  and  C_73 
REMARK   39  A    between atoms: C_73  and  O_74 
REMARK   40  A    between atoms: C_78  and  O_79 
REMARK   41  A    between atoms: C_83  and  O_84 
ROOT
HETATM    1  C   UNL     1      15.350 -18.870  12.836  1.00  0.00     0.187 C 
HETATM    2  C   UNL     1      13.800 -18.945  12.939  1.00  0.00     0.180 C 
HETATM    3  C   UNL     1      15.857 -19.842  11.747  1.00  0.00     0.183 C 
HETATM    4  C   UNL     1      15.055 -19.667  10.434  1.00  0.00     0.204 C 
HETATM    5  C   UNL     1      13.563 -19.851  10.764  1.00  0.00     0.292 C 
HETATM    6  O   UNL     1      13.161 -18.831  11.668  1.00  0.00    -0.348 OA
ENDROOT
BRANCH   1   7
HETATM    7  O   UNL     1      15.747 -17.535  12.525  1.00  0.00    -0.348 OA
BRANCH   7   8
HETATM    8  C   UNL     1      15.807 -16.716  13.692  1.00  0.00     0.292 C 
HETATM    9  O   UNL     1      15.354 -15.399  13.418  1.00  0.00    -0.348 OA
HETATM   10  C   UNL     1      15.157 -14.629  14.620  1.00  0.00     0.180 C 
HETATM   11  C   UNL     1      16.105 -15.031  15.814  1.00  0.00     0.187 C 
HETATM   12  C   UNL     1      17.459 -15.456  15.215  1.00  0.00     0.183 C 
HETATM   13  C   UNL     1      17.254 -16.677  14.261  1.00  0.00     0.204 C 
BRANCH  10  14
HETATM   14  C   UNL     1      13.668 -14.636  15.034  1.00  0.00     0.203 C 
BRANCH  14  15
HETATM   15  O   UNL     1      13.071 -13.361  14.970  1.00  0.00    -0.370 OA
BRANCH  15  16
HETATM   16  C   UNL     1      12.699 -12.948  16.255  1.00  0.00     0.262 C 
BRANCH  16  17
HETATM   17  C   UNL     1      13.317 -11.618  16.540  1.00  0.00     0.321 C 
HETATM   18  O   UNL     1      14.034 -11.086  15.708  1.00  0.00    -0.260 OA
BRANCH  17  19
HETATM   19  O   UNL     1      13.074 -10.994  17.707  1.00  0.00    -0.147 OA
HETATM   20 Na   UNL     1      14.440 -10.936  19.181  1.00  0.00     0.000 Na
ENDBRANCH  17  19
ENDBRANCH  16  17
ENDBRANCH  15  16
ENDBRANCH  14  15
ENDBRANCH  10  14
BRANCH  11  21
HETATM   21  O   UNL     1      16.320 -13.921  16.684  1.00  0.00    -0.348 OA
BRANCH  21  22
HETATM   22  C   UNL     1      15.613 -13.984  17.915  1.00  0.00     0.292 C 
HETATM   23  O   UNL     1      15.956 -12.855  18.735  1.00  0.00    -0.351 OA
HETATM   24  C   UNL     1      16.805 -13.175  19.818  1.00  0.00     0.151 C 
HETATM   25  C   UNL     1      16.138 -14.181  20.790  1.00  0.00     0.068 C 
HETATM   26  C   UNL     1      15.335 -15.259  20.025  1.00  0.00     0.154 C 
HETATM   27  C   UNL     1      15.826 -15.385  18.574  1.00  0.00     0.202 C 
BRANCH  24  28
HETATM   28  C   UNL     1      17.207 -11.897  20.574  1.00  0.00     0.200 C 
BRANCH  28  29
HETATM   29  O   UNL     1      16.523 -10.756  20.090  1.00  0.00    -0.379 OA
BRANCH  29  30
HETATM   30  C   UNL     1      17.428  -9.751  19.668  1.00  0.00     0.281 C 
BRANCH  30  31
HETATM   31  C   UNL     1      16.819  -8.937  18.565  1.00  0.00     0.313 C 
HETATM   32  O   UNL     1      17.108  -7.759  18.420  1.00  0.00    -0.260 OA
BRANCH  31  33
HETATM   33  O   UNL     1      15.948  -9.514  17.716  1.00  0.00    -0.148 OA
HETATM   34 Na   UNL     1      16.436 -11.231  16.780  1.00  0.00     0.000 Na
ENDBRANCH  31  33
ENDBRANCH  30  31
ENDBRANCH  29  30
ENDBRANCH  28  29
ENDBRANCH  24  28
BRANCH  26  35
HETATM   35  O   UNL     1      15.311 -16.483  20.714  1.00  0.00    -0.393 OA
HETATM   36  H   UNL     1      15.967 -17.086  20.277  1.00  0.00     0.210 HD
ENDBRANCH  26  35
BRANCH  27  37
HETATM   37  O   UNL     1      17.182 -15.759  18.536  1.00  0.00    -0.388 OA
HETATM   38  H   UNL     1      17.690 -14.980  18.189  1.00  0.00     0.210 HD
ENDBRANCH  27  37
ENDBRANCH  21  22
ENDBRANCH  11  21
BRANCH  12  39
HETATM   39  O   UNL     1      18.068 -14.360  14.563  1.00  0.00    -0.390 OA
HETATM   40  H   UNL     1      19.045 -14.510  14.508  1.00  0.00     0.210 HD
ENDBRANCH  12  39
BRANCH  13  41
HETATM   41  O   UNL     1      18.252 -16.709  13.269  1.00  0.00    -0.388 OA
HETATM   42  H   UNL     1      18.893 -15.973  13.453  1.00  0.00     0.210 HD
ENDBRANCH  13  41
ENDBRANCH   7   8
ENDBRANCH   1   7
BRANCH   2  43
HETATM   43  C   UNL     1      13.274 -20.167  13.752  1.00  0.00     0.203 C 
BRANCH  43  44
HETATM   44  O   UNL     1      14.071 -20.500  14.873  1.00  0.00    -0.370 OA
BRANCH  44  45
HETATM   45  C   UNL     1      14.507 -21.835  14.788  1.00  0.00     0.262 C 
BRANCH  45  46
HETATM   46  C   UNL     1      13.448 -22.791  15.230  1.00  0.00     0.321 C 
HETATM   47  O   UNL     1      13.104 -23.723  14.521  1.00  0.00    -0.260 OA
BRANCH  46  48
HETATM   48  O   UNL     1      12.856 -22.604  16.424  1.00  0.00    -0.147 OA
HETATM   49 Na   UNL     1      12.942 -24.083  17.794  1.00  0.00     0.000 Na
ENDBRANCH  46  48
ENDBRANCH  45  46
ENDBRANCH  44  45
ENDBRANCH  43  44
ENDBRANCH   2  43
BRANCH   3  50
HETATM   50  O   UNL     1      17.231 -19.647  11.535  1.00  0.00    -0.390 OA
HETATM   51  H   UNL     1      17.698 -20.432  11.925  1.00  0.00     0.210 HD
ENDBRANCH   3  50
BRANCH   4  52
HETATM   52  O   UNL     1      15.253 -18.390   9.881  1.00  0.00    -0.388 OA
HETATM   53  H   UNL     1      16.055 -18.447   9.300  1.00  0.00     0.210 HD
ENDBRANCH   4  52
BRANCH   5  54
HETATM   54  O   UNL     1      12.780 -19.737   9.582  1.00  0.00    -0.348 OA
BRANCH  54  55
HETATM   55  C   UNL     1      11.670 -20.637   9.544  1.00  0.00     0.187 C 
HETATM   56  C   UNL     1      10.348 -19.933   9.989  1.00  0.00     0.180 C 
HETATM   57  O   UNL     1       9.206 -20.232   9.190  1.00  0.00    -0.348 OA
HETATM   58  C   UNL     1       9.033 -21.579   8.788  1.00  0.00     0.292 C 
HETATM   59  C   UNL     1      10.334 -22.205   8.194  1.00  0.00     0.204 C 
HETATM   60  C   UNL     1      11.497 -21.193   8.126  1.00  0.00     0.183 C 
BRANCH  56  61
HETATM   61  C   UNL     1      10.037 -20.151  11.484  1.00  0.00     0.208 C 
BRANCH  61  62
HETATM   62  O   UNL     1      10.566 -21.377  11.961  1.00  0.00    -0.327 OA
BRANCH  62  63
HETATM   63  C   UNL     1       9.632 -22.271  12.553  1.00  0.00     0.339 C 
HETATM   64  C   UNL     1       9.529 -23.506  11.671  1.00  0.00     0.115 C 
HETATM   65  O   UNL     1      10.112 -22.646  13.808  1.00  0.00    -0.163 OA
BRANCH  63  66
HETATM   66  O   UNL     1       8.348 -21.731  12.713  1.00  0.00    -0.163 OA
HETATM   67 Na   UNL     1       8.376 -20.845  14.547  1.00  0.00     0.000 Na
ENDBRANCH  63  66
ENDBRANCH  62  63
ENDBRANCH  61  62
ENDBRANCH  56  61
BRANCH  58  68
HETATM   68  O   UNL     1       8.013 -21.560   7.796  1.00  0.00    -0.348 OA
BRANCH  68  69
HETATM   69  C   UNL     1       6.772 -22.098   8.232  1.00  0.00     0.187 C 
HETATM   70  C   UNL     1       5.657 -21.868   7.145  1.00  0.00     0.177 C 
HETATM   71  O   UNL     1       4.522 -22.741   7.254  1.00  0.00    -0.378 OA
HETATM   72  C   UNL     1       4.359 -23.254   8.557  1.00  0.00     0.202 C 
HETATM   73  C   UNL     1       5.543 -24.180   8.948  1.00  0.00     0.173 C 
HETATM   74  C   UNL     1       6.903 -23.618   8.434  1.00  0.00     0.180 C 
BRANCH  70  75
HETATM   75  C   UNL     1       5.194 -20.402   7.092  1.00  0.00     0.208 C 
BRANCH  75  76
HETATM   76  O   UNL     1       3.854 -20.287   6.641  1.00  0.00    -0.327 OA
BRANCH  76  77
HETATM   77  C   UNL     1       3.676 -19.704   5.352  1.00  0.00     0.339 C 
HETATM   78  C   UNL     1       4.224 -20.665   4.303  1.00  0.00     0.115 C 
HETATM   79  O   UNL     1       2.308 -19.539   5.137  1.00  0.00    -0.163 OA
BRANCH  77  80
HETATM   80  O   UNL     1       4.299 -18.456   5.201  1.00  0.00    -0.163 OA
HETATM   81 Na   UNL     1       3.184 -17.473   3.806  1.00  0.00     0.000 Na
ENDBRANCH  77  80
ENDBRANCH  76  77
ENDBRANCH  75  76
ENDBRANCH  70  75
BRANCH  73  82
HETATM   82  O   UNL     1       5.362 -25.516   8.544  1.00  0.00    -0.391 OA
HETATM   83  H   UNL     1       4.905 -26.004   9.278  1.00  0.00     0.210 HD
ENDBRANCH  73  82
BRANCH  74  84
HETATM   84  O   UNL     1       7.332 -24.233   7.238  1.00  0.00    -0.390 OA
HETATM   85  H   UNL     1       6.688 -24.035   6.512  1.00  0.00     0.210 HD
ENDBRANCH  74  84
ENDBRANCH  68  69
ENDBRANCH  58  68
BRANCH  59  86
HETATM   86  O   UNL     1      10.125 -22.856   6.966  1.00  0.00    -0.388 OA
HETATM   87  H   UNL     1      10.796 -22.509   6.323  1.00  0.00     0.210 HD
ENDBRANCH  59  86
BRANCH  60  88
HETATM   88  O   UNL     1      11.205 -20.166   7.212  1.00  0.00    -0.390 OA
HETATM   89  H   UNL     1      11.840 -19.428   7.399  1.00  0.00     0.210 HD
ENDBRANCH  60  88
ENDBRANCH  54  55
ENDBRANCH   5  54
TORSDOF 41
ENDMDL
MODEL 4
REMARK VINA RESULT:      -6.1      2.567     12.682
REMARK WARNING: 32 MAX_TORS EXCEEDED!!!
REMARK  41 active torsions:
REMARK  status: ('A' for Active; 'I' for Inactive)
REMARK    1  A    between atoms: C_1  and  O_29 
REMARK    2  A    between atoms: C_2  and  C_6 
REMARK    3  A    between atoms: C_3  and  O_9 
REMARK    4  A    between atoms: C_4  and  O_88 
REMARK    5  A    between atoms: C_5  and  O_11 
REMARK    6  A    between atoms: C_6  and  O_7 
REMARK    7  A    between atoms: O_7  and  C_72 
REMARK    8  A    between atoms: O_11  and  C_19 
REMARK    9  A    between atoms: O_13  and  C_17 
REMARK   10  A    between atoms: C_15  and  C_22 
REMARK   11  A    between atoms: O_16  and  C_22 
REMARK   12  A    between atoms: O_16  and  C_78 
REMARK   13  A    between atoms: O_18  and  C_21 
REMARK   14  A    between atoms: O_18  and  C_41 
REMARK   15  A    between atoms: O_20  and  C_23 
REMARK   16  A    between atoms: O_25  and  C_28 
REMARK   17  A    between atoms: C_27  and  C_33 
REMARK   18  A    between atoms: O_29  and  C_32 
REMARK   19  A    between atoms: C_30  and  O_52 
REMARK   20  A    between atoms: O_31  and  C_34 
REMARK   21  A    between atoms: C_33  and  O_57 
REMARK   22  A    between atoms: O_36  and  C_40 
REMARK   23  A    between atoms: C_38  and  C_44 
REMARK   24  A    between atoms: O_39  and  C_44 
REMARK   25  A    between atoms: O_39  and  C_83 
REMARK   26  A    between atoms: O_42  and  C_45 
REMARK   27  A    between atoms: O_47  and  C_51 
REMARK   28  A    between atoms: C_49  and  C_55 
REMARK   29  A    between atoms: O_50  and  C_55 
REMARK   30  A    between atoms: O_50  and  C_61 
REMARK   31  A    between atoms: O_52  and  C_54 
REMARK   32  A    between atoms: C_56  and  O_86 
REMARK   33  A    between atoms: O_57  and  C_67 
REMARK   34  A    between atoms: C_61  and  C_62 
REMARK   35  A    between atoms: C_62  and  O_64 
REMARK   36  A    between atoms: C_67  and  C_68 
REMARK   37  A    between atoms: C_68  and  O_69 
REMARK   38  A    between atoms: C_72  and  C_73 
REMARK   39  A    between atoms: C_73  and  O_74 
REMARK   40  A    between atoms: C_78  and  O_79 
REMARK   41  A    between atoms: C_83  and  O_84 
ROOT
HETATM    1  C   UNL     1      15.580 -17.697  13.576  1.00  0.00     0.187 C 
HETATM    2  C   UNL     1      14.708 -17.072  14.702  1.00  0.00     0.180 C 
HETATM    3  C   UNL     1      17.071 -17.367  13.813  1.00  0.00     0.183 C 
HETATM    4  C   UNL     1      17.479 -17.678  15.274  1.00  0.00     0.204 C 
HETATM    5  C   UNL     1      16.530 -16.902  16.205  1.00  0.00     0.292 C 
HETATM    6  O   UNL     1      15.204 -17.371  16.007  1.00  0.00    -0.348 OA
ENDROOT
BRANCH   1   7
HETATM    7  O   UNL     1      15.390 -19.112  13.550  1.00  0.00    -0.348 OA
BRANCH   7   8
HETATM    8  C   UNL     1      14.306 -19.484  12.699  1.00  0.00     0.292 C 
HETATM    9  O   UNL     1      14.196 -20.895  12.596  1.00  0.00    -0.348 OA
HETATM   10  C   UNL     1      12.967 -21.302  11.964  1.00  0.00     0.180 C 
HETATM   11  C   UNL     1      12.403 -20.270  10.913  1.00  0.00     0.187 C 
HETATM   12  C   UNL     1      13.606 -19.599  10.223  1.00  0.00     0.183 C 
HETATM   13  C   UNL     1      14.477 -18.856  11.286  1.00  0.00     0.204 C 
BRANCH  10  14
HETATM   14  C   UNL     1      11.910 -21.687  13.023  1.00  0.00     0.203 C 
BRANCH  14  15
HETATM   15  O   UNL     1      10.894 -20.719  13.167  1.00  0.00    -0.370 OA
BRANCH  15  16
HETATM   16  C   UNL     1       9.643 -21.347  13.200  1.00  0.00     0.262 C 
BRANCH  16  17
HETATM   17  C   UNL     1       8.575 -20.321  13.016  1.00  0.00     0.321 C 
HETATM   18  O   UNL     1       8.780 -19.160  13.334  1.00  0.00    -0.260 OA
BRANCH  17  19
HETATM   19  O   UNL     1       7.387 -20.666  12.486  1.00  0.00    -0.147 OA
HETATM   20 Na   UNL     1       7.116 -20.812  10.499  1.00  0.00     0.000 Na
ENDBRANCH  17  19
ENDBRANCH  16  17
ENDBRANCH  15  16
ENDBRANCH  14  15
ENDBRANCH  10  14
BRANCH  11  21
HETATM   21  O   UNL     1      11.622 -20.935   9.922  1.00  0.00    -0.348 OA
BRANCH  21  22
HETATM   22  C   UNL     1      10.471 -20.220   9.493  1.00  0.00     0.292 C 
HETATM   23  O   UNL     1       9.341 -21.105   9.426  1.00  0.00    -0.351 OA
HETATM   24  C   UNL     1       8.963 -21.449   8.109  1.00  0.00     0.151 C 
HETATM   25  C   UNL     1       8.537 -20.203   7.292  1.00  0.00     0.068 C 
HETATM   26  C   UNL     1       9.444 -18.988   7.600  1.00  0.00     0.154 C 
HETATM   27  C   UNL     1      10.794 -19.441   8.177  1.00  0.00     0.202 C 
BRANCH  24  28
HETATM   28  C   UNL     1       7.821 -22.479   8.135  1.00  0.00     0.200 C 
BRANCH  28  29
HETATM   29  O   UNL     1       6.607 -21.915   8.596  1.00  0.00    -0.379 OA
BRANCH  29  30
HETATM   30  C   UNL     1       5.541 -22.179   7.701  1.00  0.00     0.281 C 
BRANCH  30  31
HETATM   31  C   UNL     1       4.302 -21.460   8.147  1.00  0.00     0.313 C 
HETATM   32  O   UNL     1       3.722 -21.786   9.171  1.00  0.00    -0.260 OA
BRANCH  31  33
HETATM   33  O   UNL     1       3.827 -20.436   7.414  1.00  0.00    -0.148 OA
HETATM   34 Na   UNL     1       1.909 -19.850   7.619  1.00  0.00     0.000 Na
ENDBRANCH  31  33
ENDBRANCH  30  31
ENDBRANCH  29  30
ENDBRANCH  28  29
ENDBRANCH  24  28
BRANCH  26  35
HETATM   35  O   UNL     1       9.569 -18.133   6.492  1.00  0.00    -0.393 OA
HETATM   36  H   UNL     1      10.105 -17.348   6.778  1.00  0.00     0.210 HD
ENDBRANCH  26  35
BRANCH  27  37
HETATM   37  O   UNL     1      11.480 -20.260   7.262  1.00  0.00    -0.388 OA
HETATM   38  H   UNL     1      11.344 -19.867   6.360  1.00  0.00     0.210 HD
ENDBRANCH  27  37
ENDBRANCH  21  22
ENDBRANCH  11  21
BRANCH  12  39
HETATM   39  O   UNL     1      14.345 -20.558   9.495  1.00  0.00    -0.390 OA
HETATM   40  H   UNL     1      13.969 -21.459   9.660  1.00  0.00     0.210 HD
ENDBRANCH  12  39
BRANCH  13  41
HETATM   41  O   UNL     1      15.817 -18.772  10.864  1.00  0.00    -0.388 OA
HETATM   42  H   UNL     1      15.886 -18.036  10.202  1.00  0.00     0.210 HD
ENDBRANCH  13  41
ENDBRANCH   7   8
ENDBRANCH   1   7
BRANCH   2  43
HETATM   43  C   UNL     1      14.424 -15.551  14.516  1.00  0.00     0.203 C 
BRANCH  43  44
HETATM   44  O   UNL     1      13.563 -15.002  15.496  1.00  0.00    -0.370 OA
BRANCH  44  45
HETATM   45  C   UNL     1      13.267 -13.660  15.196  1.00  0.00     0.262 C 
BRANCH  45  46
HETATM   46  C   UNL     1      13.567 -12.758  16.349  1.00  0.00     0.321 C 
HETATM   47  O   UNL     1      14.168 -11.708  16.189  1.00  0.00    -0.260 OA
BRANCH  46  48
HETATM   48  O   UNL     1      13.176 -13.124  17.583  1.00  0.00    -0.147 OA
HETATM   49 Na   UNL     1      12.551 -15.019  17.885  1.00  0.00     0.000 Na
ENDBRANCH  46  48
ENDBRANCH  45  46
ENDBRANCH  44  45
ENDBRANCH  43  44
ENDBRANCH   2  43
BRANCH   3  50
HETATM   50  O   UNL     1      17.869 -18.075  12.899  1.00  0.00    -0.390 OA
HETATM   51  H   UNL     1      18.118 -18.931  13.337  1.00  0.00     0.210 HD
ENDBRANCH   3  50
BRANCH   4  52
HETATM   52  O   UNL     1      17.379 -19.053  15.551  1.00  0.00    -0.388 OA
HETATM   53  H   UNL     1      16.953 -19.137  16.443  1.00  0.00     0.210 HD
ENDBRANCH   4  52
BRANCH   5  54
HETATM   54  O   UNL     1      16.885 -17.123  17.564  1.00  0.00    -0.348 OA
BRANCH  54  55
HETATM   55  C   UNL     1      17.110 -15.916  18.298  1.00  0.00     0.187 C 
HETATM   56  C   UNL     1      17.508 -14.738  17.351  1.00  0.00     0.180 C 
HETATM   57  O   UNL     1      16.873 -13.494  17.636  1.00  0.00    -0.348 OA
HETATM   58  C   UNL     1      16.760 -13.123  18.998  1.00  0.00     0.292 C 
HETATM   59  C   UNL     1      16.204 -14.275  19.895  1.00  0.00     0.204 C 
HETATM   60  C   UNL     1      15.848 -15.536  19.079  1.00  0.00     0.183 C 
BRANCH  56  61
HETATM   61  C   UNL     1      19.035 -14.557  17.242  1.00  0.00     0.208 C 
BRANCH  61  62
HETATM   62  O   UNL     1      19.709 -15.800  17.137  1.00  0.00    -0.327 OA
BRANCH  62  63
HETATM   63  C   UNL     1      20.678 -15.899  16.102  1.00  0.00     0.339 C 
HETATM   64  C   UNL     1      21.962 -15.241  16.586  1.00  0.00     0.115 C 
HETATM   65  O   UNL     1      20.924 -17.248  15.852  1.00  0.00    -0.163 OA
BRANCH  63  66
HETATM   66  O   UNL     1      20.294 -15.288  14.900  1.00  0.00    -0.163 OA
HETATM   67 Na   UNL     1      20.000 -16.829  13.600  1.00  0.00     0.000 Na
ENDBRANCH  63  66
ENDBRANCH  62  63
ENDBRANCH  61  62
ENDBRANCH  56  61
BRANCH  58  68
HETATM   68  O   UNL     1      15.864 -12.018  19.027  1.00  0.00    -0.348 OA
BRANCH  68  69
HETATM   69  C   UNL     1      16.429 -10.830  19.564  1.00  0.00     0.187 C 
HETATM   70  C   UNL     1      17.999 -10.865  19.453  1.00  0.00     0.177 C 
HETATM   71  O   UNL     1      18.636  -9.580  19.525  1.00  0.00    -0.378 OA
HETATM   72  C   UNL     1      17.842  -8.621  20.187  1.00  0.00     0.202 C 
HETATM   73  C   UNL     1      16.545  -8.317  19.389  1.00  0.00     0.173 C 
HETATM   74  C   UNL     1      15.944  -9.610  18.760  1.00  0.00     0.180 C 
BRANCH  70  75
HETATM   75  C   UNL     1      18.630 -11.827  20.474  1.00  0.00     0.208 C 
BRANCH  75  76
HETATM   76  O   UNL     1      19.918 -12.260  20.067  1.00  0.00    -0.327 OA
BRANCH  76  77
HETATM   77  C   UNL     1      20.997 -11.906  20.928  1.00  0.00     0.339 C 
HETATM   78  C   UNL     1      21.862 -10.867  20.225  1.00  0.00     0.115 C 
HETATM   79  O   UNL     1      20.460 -11.334  22.082  1.00  0.00    -0.163 OA
BRANCH  77  80
HETATM   80  O   UNL     1      21.800 -12.992  21.308  1.00  0.00    -0.163 OA
HETATM   81 Na   UNL     1      20.873 -14.634  20.535  1.00  0.00     0.000 Na
ENDBRANCH  77  80
ENDBRANCH  76  77
ENDBRANCH  75  76
ENDBRANCH  70  75
BRANCH  73  82
HETATM   82  O   UNL     1      16.712  -7.312  18.418  1.00  0.00    -0.391 OA
HETATM   83  H   UNL     1      16.475  -6.440  18.829  1.00  0.00     0.210 HD
ENDBRANCH  73  82
BRANCH  74  84
HETATM   84  O   UNL     1      16.278  -9.761  17.397  1.00  0.00    -0.390 OA
HETATM   85  H   UNL     1      16.621 -10.677  17.237  1.00  0.00     0.210 HD
ENDBRANCH  74  84
ENDBRANCH  68  69
ENDBRANCH  58  68
BRANCH  59  86
HETATM   86  O   UNL     1      15.149 -13.868  20.728  1.00  0.00    -0.388 OA
HETATM   87  H   UNL     1      14.300 -14.026  20.240  1.00  0.00     0.210 HD
ENDBRANCH  59  86
BRANCH  60  88
HETATM   88  O   UNL     1      14.774 -15.277  18.211  1.00  0.00    -0.390 OA
HETATM   89  H   UNL     1      14.286 -16.133  18.096  1.00  0.00     0.210 HD
ENDBRANCH  60  88
ENDBRANCH  54  55
ENDBRANCH   5  54
TORSDOF 41
ENDMDL
MODEL 5
REMARK VINA RESULT:      -6.1      2.412     12.209
REMARK WARNING: 32 MAX_TORS EXCEEDED!!!
REMARK  41 active torsions:
REMARK  status: ('A' for Active; 'I' for Inactive)
REMARK    1  A    between atoms: C_1  and  O_29 
REMARK    2  A    between atoms: C_2  and  C_6 
REMARK    3  A    between atoms: C_3  and  O_9 
REMARK    4  A    between atoms: C_4  and  O_88 
REMARK    5  A    between atoms: C_5  and  O_11 
REMARK    6  A    between atoms: C_6  and  O_7 
REMARK    7  A    between atoms: O_7  and  C_72 
REMARK    8  A    between atoms: O_11  and  C_19 
REMARK    9  A    between atoms: O_13  and  C_17 
REMARK   10  A    between atoms: C_15  and  C_22 
REMARK   11  A    between atoms: O_16  and  C_22 
REMARK   12  A    between atoms: O_16  and  C_78 
REMARK   13  A    between atoms: O_18  and  C_21 
REMARK   14  A    between atoms: O_18  and  C_41 
REMARK   15  A    between atoms: O_20  and  C_23 
REMARK   16  A    between atoms: O_25  and  C_28 
REMARK   17  A    between atoms: C_27  and  C_33 
REMARK   18  A    between atoms: O_29  and  C_32 
REMARK   19  A    between atoms: C_30  and  O_52 
REMARK   20  A    between atoms: O_31  and  C_34 
REMARK   21  A    between atoms: C_33  and  O_57 
REMARK   22  A    between atoms: O_36  and  C_40 
REMARK   23  A    between atoms: C_38  and  C_44 
REMARK   24  A    between atoms: O_39  and  C_44 
REMARK   25  A    between atoms: O_39  and  C_83 
REMARK   26  A    between atoms: O_42  and  C_45 
REMARK   27  A    between atoms: O_47  and  C_51 
REMARK   28  A    between atoms: C_49  and  C_55 
REMARK   29  A    between atoms: O_50  and  C_55 
REMARK   30  A    between atoms: O_50  and  C_61 
REMARK   31  A    between atoms: O_52  and  C_54 
REMARK   32  A    between atoms: C_56  and  O_86 
REMARK   33  A    between atoms: O_57  and  C_67 
REMARK   34  A    between atoms: C_61  and  C_62 
REMARK   35  A    between atoms: C_62  and  O_64 
REMARK   36  A    between atoms: C_67  and  C_68 
REMARK   37  A    between atoms: C_68  and  O_69 
REMARK   38  A    between atoms: C_72  and  C_73 
REMARK   39  A    between atoms: C_73  and  O_74 
REMARK   40  A    between atoms: C_78  and  O_79 
REMARK   41  A    between atoms: C_83  and  O_84 
ROOT
HETATM    1  C   UNL     1      16.143 -18.943  13.139  1.00  0.00     0.187 C 
HETATM    2  C   UNL     1      15.125 -18.193  14.045  1.00  0.00     0.180 C 
HETATM    3  C   UNL     1      17.569 -18.811  13.721  1.00  0.00     0.183 C 
HETATM    4  C   UNL     1      17.583 -19.155  15.231  1.00  0.00     0.204 C 
HETATM    5  C   UNL     1      16.555 -18.248  15.931  1.00  0.00     0.292 C 
HETATM    6  O   UNL     1      15.261 -18.539  15.423  1.00  0.00    -0.348 OA
ENDROOT
BRANCH   1   7
HETATM    7  O   UNL     1      15.779 -20.320  13.044  1.00  0.00    -0.348 OA
BRANCH   7   8
HETATM    8  C   UNL     1      14.580 -20.498  12.291  1.00  0.00     0.292 C 
HETATM    9  O   UNL     1      14.187 -21.861  12.267  1.00  0.00    -0.348 OA
HETATM   10  C   UNL     1      12.856 -22.037  11.743  1.00  0.00     0.180 C 
HETATM   11  C   UNL     1      12.425 -20.952  10.684  1.00  0.00     0.187 C 
HETATM   12  C   UNL     1      13.678 -20.558   9.878  1.00  0.00     0.183 C 
HETATM   13  C   UNL     1      14.759 -19.967  10.839  1.00  0.00     0.204 C 
BRANCH  10  14
HETATM   14  C   UNL     1      11.831 -22.165  12.892  1.00  0.00     0.203 C 
BRANCH  14  15
HETATM   15  O   UNL     1      11.110 -20.975  13.125  1.00  0.00    -0.370 OA
BRANCH  15  16
HETATM   16  C   UNL     1       9.736 -21.230  13.040  1.00  0.00     0.262 C 
BRANCH  16  17
HETATM   17  C   UNL     1       9.002 -19.933  12.947  1.00  0.00     0.321 C 
HETATM   18  O   UNL     1       7.850 -19.853  13.340  1.00  0.00    -0.260 OA
BRANCH  17  19
HETATM   19  O   UNL     1       9.611 -18.844  12.443  1.00  0.00    -0.147 OA
HETATM   20 Na   UNL     1      11.586 -18.539  12.665  1.00  0.00     0.000 Na
ENDBRANCH  17  19
ENDBRANCH  16  17
ENDBRANCH  15  16
ENDBRANCH  14  15
ENDBRANCH  10  14
BRANCH  11  21
HETATM   21  O   UNL     1      11.453 -21.481   9.785  1.00  0.00    -0.348 OA
BRANCH  21  22
HETATM   22  C   UNL     1      10.415 -20.578   9.430  1.00  0.00     0.292 C 
HETATM   23  O   UNL     1       9.152 -21.262   9.419  1.00  0.00    -0.351 OA
HETATM   24  C   UNL     1       8.651 -21.514   8.122  1.00  0.00     0.151 C 
HETATM   25  C   UNL     1       8.393 -20.198   7.344  1.00  0.00     0.068 C 
HETATM   26  C   UNL     1       9.504 -19.156   7.612  1.00  0.00     0.154 C 
HETATM   27  C   UNL     1      10.790 -19.837   8.106  1.00  0.00     0.202 C 
BRANCH  24  28
HETATM   28  C   UNL     1       7.357 -22.341   8.203  1.00  0.00     0.200 C 
BRANCH  28  29
HETATM   29  O   UNL     1       6.202 -21.522   8.207  1.00  0.00    -0.379 OA
BRANCH  29  30
HETATM   30  C   UNL     1       5.093 -22.188   7.628  1.00  0.00     0.281 C 
BRANCH  30  31
HETATM   31  C   UNL     1       4.092 -22.542   8.688  1.00  0.00     0.313 C 
HETATM   32  O   UNL     1       4.101 -21.981   9.773  1.00  0.00    -0.260 OA
BRANCH  31  33
HETATM   33  O   UNL     1       3.164 -23.484   8.438  1.00  0.00    -0.148 OA
HETATM   34 Na   UNL     1       1.248 -23.187   8.988  1.00  0.00     0.000 Na
ENDBRANCH  31  33
ENDBRANCH  30  31
ENDBRANCH  29  30
ENDBRANCH  28  29
ENDBRANCH  24  28
BRANCH  26  35
HETATM   35  O   UNL     1       9.709 -18.312   6.508  1.00  0.00    -0.393 OA
HETATM   36  H   UNL     1      10.476 -18.673   5.992  1.00  0.00     0.210 HD
ENDBRANCH  26  35
BRANCH  27  37
HETATM   37  O   UNL     1      11.280 -20.740   7.144  1.00  0.00    -0.388 OA
HETATM   38  H   UNL     1      10.498 -21.066   6.626  1.00  0.00     0.210 HD
ENDBRANCH  27  37
ENDBRANCH  21  22
ENDBRANCH  11  21
BRANCH  12  39
HETATM   39  O   UNL     1      14.155 -21.671   9.150  1.00  0.00    -0.390 OA
HETATM   40  H   UNL     1      14.553 -22.328   9.775  1.00  0.00     0.210 HD
ENDBRANCH  12  39
BRANCH  13  41
HETATM   41  O   UNL     1      16.052 -20.168  10.320  1.00  0.00    -0.388 OA
HETATM   42  H   UNL     1      16.203 -21.145  10.238  1.00  0.00     0.210 HD
ENDBRANCH  13  41
ENDBRANCH   7   8
ENDBRANCH   1   7
BRANCH   2  43
HETATM   43  C   UNL     1      15.095 -16.650  13.827  1.00  0.00     0.203 C 
BRANCH  43  44
HETATM   44  O   UNL     1      14.329 -15.947  14.787  1.00  0.00    -0.370 OA
BRANCH  44  45
HETATM   45  C   UNL     1      14.073 -14.635  14.349  1.00  0.00     0.262 C 
BRANCH  45  46
HETATM   46  C   UNL     1      13.595 -13.764  15.464  1.00  0.00     0.321 C 
HETATM   47  O   UNL     1      12.449 -13.343  15.488  1.00  0.00    -0.260 OA
BRANCH  46  48
HETATM   48  O   UNL     1      14.452 -13.431  16.447  1.00  0.00    -0.147 OA
HETATM   49 Na   UNL     1      14.020 -13.974  18.341  1.00  0.00     0.000 Na
ENDBRANCH  46  48
ENDBRANCH  45  46
ENDBRANCH  44  45
ENDBRANCH  43  44
ENDBRANCH   2  43
BRANCH   3  50
HETATM   50  O   UNL     1      18.456 -19.630  13.004  1.00  0.00    -0.390 OA
HETATM   51  H   UNL     1      18.994 -20.128  13.674  1.00  0.00     0.210 HD
ENDBRANCH   3  50
BRANCH   4  52
HETATM   52  O   UNL     1      17.240 -20.500  15.452  1.00  0.00    -0.388 OA
HETATM   53  H   UNL     1      17.698 -21.034  14.752  1.00  0.00     0.210 HD
ENDBRANCH   4  52
BRANCH   5  54
HETATM   54  O   UNL     1      16.553 -18.497  17.332  1.00  0.00    -0.348 OA
BRANCH  54  55
HETATM   55  C   UNL     1      16.926 -17.359  18.114  1.00  0.00     0.187 C 
HETATM   56  C   UNL     1      17.638 -16.275  17.241  1.00  0.00     0.180 C 
HETATM   57  O   UNL     1      17.226 -14.934  17.490  1.00  0.00    -0.348 OA
HETATM   58  C   UNL     1      17.044 -14.554  18.842  1.00  0.00     0.292 C 
HETATM   59  C   UNL     1      16.188 -15.581  19.649  1.00  0.00     0.204 C 
HETATM   60  C   UNL     1      15.686 -16.747  18.771  1.00  0.00     0.183 C 
BRANCH  56  61
HETATM   61  C   UNL     1      19.175 -16.391  17.292  1.00  0.00     0.208 C 
BRANCH  61  62
HETATM   62  O   UNL     1      19.810 -15.230  16.785  1.00  0.00    -0.327 OA
BRANCH  62  63
HETATM   63  C   UNL     1      20.392 -15.351  15.493  1.00  0.00     0.339 C 
HETATM   64  C   UNL     1      19.725 -14.339  14.573  1.00  0.00     0.115 C 
HETATM   65  O   UNL     1      21.751 -15.053  15.589  1.00  0.00    -0.163 OA
BRANCH  63  66
HETATM   66  O   UNL     1      20.256 -16.624  14.923  1.00  0.00    -0.163 OA
HETATM   67 Na   UNL     1      19.498 -16.288  13.062  1.00  0.00     0.000 Na
ENDBRANCH  63  66
ENDBRANCH  62  63
ENDBRANCH  61  62
ENDBRANCH  56  61
BRANCH  58  68
HETATM   68  O   UNL     1      16.378 -13.297  18.806  1.00  0.00    -0.348 OA
BRANCH  68  69
HETATM   69  C   UNL     1      17.218 -12.189  19.101  1.00  0.00     0.187 C 
HETATM   70  C   UNL     1      16.371 -10.867  19.213  1.00  0.00     0.177 C 
HETATM   71  O   UNL     1      17.008  -9.805  19.940  1.00  0.00    -0.378 OA
HETATM   72  C   UNL     1      18.412  -9.931  19.960  1.00  0.00     0.202 C 
HETATM   73  C   UNL     1      18.853 -11.196  20.744  1.00  0.00     0.173 C 
HETATM   74  C   UNL     1      17.909 -12.403  20.459  1.00  0.00     0.180 C 
BRANCH  70  75
HETATM   75  C   UNL     1      15.903 -10.361  17.838  1.00  0.00     0.208 C 
BRANCH  75  76
HETATM   76  O   UNL     1      14.736  -9.562  17.938  1.00  0.00    -0.327 OA
BRANCH  76  77
HETATM   77  C   UNL     1      13.498 -10.267  17.981  1.00  0.00     0.339 C 
HETATM   78  C   UNL     1      12.491  -9.436  18.768  1.00  0.00     0.115 C 
HETATM   79  O   UNL     1      13.035 -10.408  16.672  1.00  0.00    -0.163 OA
BRANCH  77  80
HETATM   80  O   UNL     1      13.589 -11.543  18.555  1.00  0.00    -0.163 OA
HETATM   81 Na   UNL     1      12.142 -12.644  17.633  1.00  0.00     0.000 Na
ENDBRANCH  77  80
ENDBRANCH  76  77
ENDBRANCH  75  76
ENDBRANCH  70  75
BRANCH  73  82
HETATM   82  O   UNL     1      18.988 -10.974  22.128  1.00  0.00    -0.391 OA
HETATM   83  H   UNL     1      19.191 -10.013  22.270  1.00  0.00     0.210 HD
ENDBRANCH  73  82
BRANCH  74  84
HETATM   84  O   UNL     1      16.943 -12.593  21.472  1.00  0.00    -0.390 OA
HETATM   85  H   UNL     1      16.296 -11.843  21.459  1.00  0.00     0.210 HD
ENDBRANCH  74  84
ENDBRANCH  68  69
ENDBRANCH  58  68
BRANCH  59  86
HETATM   86  O   UNL     1      15.148 -14.982  20.380  1.00  0.00    -0.388 OA
HETATM   87  H   UNL     1      14.596 -15.708  20.769  1.00  0.00     0.210 HD
ENDBRANCH  59  86
BRANCH  60  88
HETATM   88  O   UNL     1      14.777 -16.282  17.805  1.00  0.00    -0.390 OA
HETATM   89  H   UNL     1      13.912 -16.145  18.269  1.00  0.00     0.210 HD
ENDBRANCH  60  88
ENDBRANCH  54  55
ENDBRANCH   5  54
TORSDOF 41
ENDMDL
MODEL 6
REMARK VINA RESULT:      -5.9      4.935     14.131
REMARK WARNING: 32 MAX_TORS EXCEEDED!!!
REMARK  41 active torsions:
REMARK  status: ('A' for Active; 'I' for Inactive)
REMARK    1  A    between atoms: C_1  and  O_29 
REMARK    2  A    between atoms: C_2  and  C_6 
REMARK    3  A    between atoms: C_3  and  O_9 
REMARK    4  A    between atoms: C_4  and  O_88 
REMARK    5  A    between atoms: C_5  and  O_11 
REMARK    6  A    between atoms: C_6  and  O_7 
REMARK    7  A    between atoms: O_7  and  C_72 
REMARK    8  A    between atoms: O_11  and  C_19 
REMARK    9  A    between atoms: O_13  and  C_17 
REMARK   10  A    between atoms: C_15  and  C_22 
REMARK   11  A    between atoms: O_16  and  C_22 
REMARK   12  A    between atoms: O_16  and  C_78 
REMARK   13  A    between atoms: O_18  and  C_21 
REMARK   14  A    between atoms: O_18  and  C_41 
REMARK   15  A    between atoms: O_20  and  C_23 
REMARK   16  A    between atoms: O_25  and  C_28 
REMARK   17  A    between atoms: C_27  and  C_33 
REMARK   18  A    between atoms: O_29  and  C_32 
REMARK   19  A    between atoms: C_30  and  O_52 
REMARK   20  A    between atoms: O_31  and  C_34 
REMARK   21  A    between atoms: C_33  and  O_57 
REMARK   22  A    between atoms: O_36  and  C_40 
REMARK   23  A    between atoms: C_38  and  C_44 
REMARK   24  A    between atoms: O_39  and  C_44 
REMARK   25  A    between atoms: O_39  and  C_83 
REMARK   26  A    between atoms: O_42  and  C_45 
REMARK   27  A    between atoms: O_47  and  C_51 
REMARK   28  A    between atoms: C_49  and  C_55 
REMARK   29  A    between atoms: O_50  and  C_55 
REMARK   30  A    between atoms: O_50  and  C_61 
REMARK   31  A    between atoms: O_52  and  C_54 
REMARK   32  A    between atoms: C_56  and  O_86 
REMARK   33  A    between atoms: O_57  and  C_67 
REMARK   34  A    between atoms: C_61  and  C_62 
REMARK   35  A    between atoms: C_62  and  O_64 
REMARK   36  A    between atoms: C_67  and  C_68 
REMARK   37  A    between atoms: C_68  and  O_69 
REMARK   38  A    between atoms: C_72  and  C_73 
REMARK   39  A    between atoms: C_73  and  O_74 
REMARK   40  A    between atoms: C_78  and  O_79 
REMARK   41  A    between atoms: C_83  and  O_84 
ROOT
HETATM    1  C   UNL     1      18.380 -12.704  20.659  1.00  0.00     0.187 C 
HETATM    2  C   UNL     1      17.877 -11.513  21.524  1.00  0.00     0.180 C 
HETATM    3  C   UNL     1      19.914 -12.625  20.487  1.00  0.00     0.183 C 
HETATM    4  C   UNL     1      20.611 -12.403  21.853  1.00  0.00     0.204 C 
HETATM    5  C   UNL     1      20.006 -11.140  22.491  1.00  0.00     0.292 C 
HETATM    6  O   UNL     1      18.624 -11.361  22.731  1.00  0.00    -0.348 OA
ENDROOT
BRANCH   1   7
HETATM    7  O   UNL     1      18.019 -13.937  21.281  1.00  0.00    -0.348 OA
BRANCH   7   8
HETATM    8  C   UNL     1      17.580 -14.903  20.327  1.00  0.00     0.292 C 
HETATM    9  O   UNL     1      17.708 -14.409  19.002  1.00  0.00    -0.348 OA
HETATM   10  C   UNL     1      17.522 -15.442  18.015  1.00  0.00     0.180 C 
HETATM   11  C   UNL     1      16.550 -16.601  18.460  1.00  0.00     0.187 C 
HETATM   12  C   UNL     1      15.455 -15.980  19.348  1.00  0.00     0.183 C 
HETATM   13  C   UNL     1      16.106 -15.317  20.604  1.00  0.00     0.204 C 
BRANCH  10  14
HETATM   14  C   UNL     1      18.886 -15.983  17.530  1.00  0.00     0.203 C 
BRANCH  14  15
HETATM   15  O   UNL     1      19.798 -14.961  17.196  1.00  0.00    -0.370 OA
BRANCH  15  16
HETATM   16  C   UNL     1      20.523 -15.328  16.055  1.00  0.00     0.262 C 
BRANCH  16  17
HETATM   17  C   UNL     1      19.669 -15.130  14.847  1.00  0.00     0.321 C 
HETATM   18  O   UNL     1      19.572 -16.016  14.014  1.00  0.00    -0.260 OA
BRANCH  17  19
HETATM   19  O   UNL     1      18.989 -13.980  14.678  1.00  0.00    -0.147 OA
HETATM   20 Na   UNL     1      16.980 -13.921  14.723  1.00  0.00     0.000 Na
ENDBRANCH  17  19
ENDBRANCH  16  17
ENDBRANCH  15  16
ENDBRANCH  14  15
ENDBRANCH  10  14
BRANCH  11  21
HETATM   21  O   UNL     1      15.930 -17.204  17.326  1.00  0.00    -0.348 OA
BRANCH  21  22
HETATM   22  C   UNL     1      16.224 -16.579  16.084  1.00  0.00     0.292 C 
HETATM   23  O   UNL     1      15.298 -15.508  15.843  1.00  0.00    -0.351 OA
HETATM   24  C   UNL     1      14.328 -15.803  14.859  1.00  0.00     0.151 C 
HETATM   25  C   UNL     1      14.979 -16.079  13.479  1.00  0.00     0.068 C 
HETATM   26  C   UNL     1      16.284 -16.896  13.624  1.00  0.00     0.154 C 
HETATM   27  C   UNL     1      16.311 -17.659  14.958  1.00  0.00     0.202 C 
BRANCH  24  28
HETATM   28  C   UNL     1      13.317 -14.649  14.744  1.00  0.00     0.200 C 
BRANCH  28  29
HETATM   29  O   UNL     1      13.172 -13.947  15.965  1.00  0.00    -0.379 OA
BRANCH  29  30
HETATM   30  C   UNL     1      13.241 -12.546  15.768  1.00  0.00     0.281 C 
BRANCH  30  31
HETATM   31  C   UNL     1      13.309 -11.840  17.091  1.00  0.00     0.313 C 
HETATM   32  O   UNL     1      12.542 -10.928  17.356  1.00  0.00    -0.260 OA
BRANCH  31  33
HETATM   33  O   UNL     1      14.222 -12.224  18.002  1.00  0.00    -0.148 OA
HETATM   34 Na   UNL     1      15.742 -13.433  17.462  1.00  0.00     0.000 Na
ENDBRANCH  31  33
ENDBRANCH  30  31
ENDBRANCH  29  30
ENDBRANCH  28  29
ENDBRANCH  24  28
BRANCH  26  35
HETATM   35  O   UNL     1      16.515 -17.717  12.507  1.00  0.00    -0.393 OA
HETATM   36  H   UNL     1      15.638 -18.080  12.215  1.00  0.00     0.210 HD
ENDBRANCH  26  35
BRANCH  27  37
HETATM   37  O   UNL     1      15.235 -18.562  15.041  1.00  0.00    -0.388 OA
HETATM   38  H   UNL     1      15.623 -19.470  15.140  1.00  0.00     0.210 HD
ENDBRANCH  27  37
ENDBRANCH  21  22
ENDBRANCH  11  21
BRANCH  12  39
HETATM   39  O   UNL     1      14.682 -15.067  18.597  1.00  0.00    -0.390 OA
HETATM   40  H   UNL     1      15.093 -14.167  18.647  1.00  0.00     0.210 HD
ENDBRANCH  12  39
BRANCH  13  41
HETATM   41  O   UNL     1      15.305 -14.266  21.086  1.00  0.00    -0.388 OA
HETATM   42  H   UNL     1      14.935 -13.778  20.305  1.00  0.00     0.210 HD
ENDBRANCH  13  41
ENDBRANCH   7   8
ENDBRANCH   1   7
BRANCH   2  43
HETATM   43  C   UNL     1      17.744 -10.171  20.743  1.00  0.00     0.203 C 
BRANCH  43  44
HETATM   44  O   UNL     1      18.021 -10.278  19.360  1.00  0.00    -0.370 OA
BRANCH  44  45
HETATM   45  C   UNL     1      16.853 -10.069  18.605  1.00  0.00     0.262 C 
BRANCH  45  46
HETATM   46  C   UNL     1      16.351  -8.668  18.741  1.00  0.00     0.321 C 
HETATM   47  O   UNL     1      17.052  -7.715  18.441  1.00  0.00    -0.260 OA
BRANCH  46  48
HETATM   48  O   UNL     1      15.110  -8.462  19.218  1.00  0.00    -0.147 OA
HETATM   49 Na   UNL     1      13.833 -10.022  19.318  1.00  0.00     0.000 Na
ENDBRANCH  46  48
ENDBRANCH  45  46
ENDBRANCH  44  45
ENDBRANCH  43  44
ENDBRANCH   2  43
BRANCH   3  50
HETATM   50  O   UNL     1      20.385 -13.789  19.858  1.00  0.00    -0.390 OA
HETATM   51  H   UNL     1      21.240 -14.031  20.303  1.00  0.00     0.210 HD
ENDBRANCH   3  50
BRANCH   4  52
HETATM   52  O   UNL     1      20.412 -13.498  22.712  1.00  0.00    -0.388 OA
HETATM   53  H   UNL     1      19.521 -13.878  22.495  1.00  0.00     0.210 HD
ENDBRANCH   4  52
BRANCH   5  54
HETATM   54  O   UNL     1      20.639 -10.867  23.736  1.00  0.00    -0.348 OA
BRANCH  54  55
HETATM   55  C   UNL     1      20.719  -9.473  24.041  1.00  0.00     0.187 C 
HETATM   56  C   UNL     1      20.427  -8.595  22.781  1.00  0.00     0.180 C 
HETATM   57  O   UNL     1      19.579  -7.473  23.011  1.00  0.00    -0.348 OA
HETATM   58  C   UNL     1      19.801  -6.725  24.192  1.00  0.00     0.292 C 
HETATM   59  C   UNL     1      19.927  -7.625  25.463  1.00  0.00     0.204 C 
HETATM   60  C   UNL     1      19.719  -9.121  25.147  1.00  0.00     0.183 C 
BRANCH  56  61
HETATM   61  C   UNL     1      21.714  -8.163  22.050  1.00  0.00     0.208 C 
BRANCH  61  62
HETATM   62  O   UNL     1      22.270  -9.221  21.288  1.00  0.00    -0.327 OA
BRANCH  62  63
HETATM   63  C   UNL     1      22.209  -9.072  19.875  1.00  0.00     0.339 C 
HETATM   64  C   UNL     1      23.627  -9.136  19.328  1.00  0.00     0.115 C 
HETATM   65  O   UNL     1      21.469 -10.129  19.348  1.00  0.00    -0.163 OA
BRANCH  63  66
HETATM   66  O   UNL     1      21.625  -7.869  19.454  1.00  0.00    -0.163 OA
HETATM   67 Na   UNL     1      19.706  -8.357  18.975  1.00  0.00     0.000 Na
ENDBRANCH  63  66
ENDBRANCH  62  63
ENDBRANCH  61  62
ENDBRANCH  56  61
BRANCH  58  68
HETATM   68  O   UNL     1      18.677  -5.862  24.324  1.00  0.00    -0.348 OA
BRANCH  68  69
HETATM   69  C   UNL     1      17.615  -6.156  23.426  1.00  0.00     0.187 C 
HETATM   70  C   UNL     1      16.228  -6.082  24.168  1.00  0.00     0.177 C 
HETATM   71  O   UNL     1      15.094  -5.903  23.305  1.00  0.00    -0.378 OA
HETATM   72  C   UNL     1      15.343  -6.342  21.988  1.00  0.00     0.202 C 
HETATM   73  C   UNL     1      16.435  -5.476  21.304  1.00  0.00     0.173 C 
HETATM   74  C   UNL     1      17.582  -5.113  22.295  1.00  0.00     0.180 C 
BRANCH  70  75
HETATM   75  C   UNL     1      16.003  -7.289  25.095  1.00  0.00     0.208 C 
BRANCH  75  76
HETATM   76  O   UNL     1      16.254  -6.966  26.453  1.00  0.00    -0.327 OA
BRANCH  76  77
HETATM   77  C   UNL     1      15.951  -7.983  27.404  1.00  0.00     0.339 C 
HETATM   78  C   UNL     1      14.546  -8.507  27.127  1.00  0.00     0.115 C 
HETATM   79  O   UNL     1      16.860  -9.026  27.226  1.00  0.00    -0.163 OA
BRANCH  77  80
HETATM   80  O   UNL     1      16.027  -7.556  28.738  1.00  0.00    -0.163 OA
HETATM   81 Na   UNL     1      14.348  -6.438  29.034  1.00  0.00     0.000 Na
ENDBRANCH  77  80
ENDBRANCH  76  77
ENDBRANCH  75  76
ENDBRANCH  70  75
BRANCH  73  82
HETATM   82  O   UNL     1      15.922  -4.324  20.679  1.00  0.00    -0.391 OA
HETATM   83  H   UNL     1      15.350  -3.844  21.333  1.00  0.00     0.210 HD
ENDBRANCH  73  82
BRANCH  74  84
HETATM   84  O   UNL     1      17.448  -3.815  22.834  1.00  0.00    -0.390 OA
HETATM   85  H   UNL     1      18.243  -3.273  22.598  1.00  0.00     0.210 HD
ENDBRANCH  74  84
ENDBRANCH  68  69
ENDBRANCH  58  68
BRANCH  59  86
HETATM   86  O   UNL     1      19.122  -7.192  26.530  1.00  0.00    -0.388 OA
HETATM   87  H   UNL     1      19.610  -7.380  27.372  1.00  0.00     0.210 HD
ENDBRANCH  59  86
BRANCH  60  88
HETATM   88  O   UNL     1      18.398  -9.360  24.731  1.00  0.00    -0.390 OA
HETATM   89  H   UNL     1      17.908  -8.504  24.831  1.00  0.00     0.210 HD
ENDBRANCH  60  88
ENDBRANCH  54  55
ENDBRANCH   5  54
TORSDOF 41
ENDMDL
MODEL 7
REMARK VINA RESULT:      -5.8      6.352     12.357
REMARK WARNING: 32 MAX_TORS EXCEEDED!!!
REMARK  41 active torsions:
REMARK  status: ('A' for Active; 'I' for Inactive)
REMARK    1  A    between atoms: C_1  and  O_29 
REMARK    2  A    between atoms: C_2  and  C_6 
REMARK    3  A    between atoms: C_3  and  O_9 
REMARK    4  A    between atoms: C_4  and  O_88 
REMARK    5  A    between atoms: C_5  and  O_11 
REMARK    6  A    between atoms: C_6  and  O_7 
REMARK    7  A    between atoms: O_7  and  C_72 
REMARK    8  A    between atoms: O_11  and  C_19 
REMARK    9  A    between atoms: O_13  and  C_17 
REMARK   10  A    between atoms: C_15  and  C_22 
REMARK   11  A    between atoms: O_16  and  C_22 
REMARK   12  A    between atoms: O_16  and  C_78 
REMARK   13  A    between atoms: O_18  and  C_21 
REMARK   14  A    between atoms: O_18  and  C_41 
REMARK   15  A    between atoms: O_20  and  C_23 
REMARK   16  A    between atoms: O_25  and  C_28 
REMARK   17  A    between atoms: C_27  and  C_33 
REMARK   18  A    between atoms: O_29  and  C_32 
REMARK   19  A    between atoms: C_30  and  O_52 
REMARK   20  A    between atoms: O_31  and  C_34 
REMARK   21  A    between atoms: C_33  and  O_57 
REMARK   22  A    between atoms: O_36  and  C_40 
REMARK   23  A    between atoms: C_38  and  C_44 
REMARK   24  A    between atoms: O_39  and  C_44 
REMARK   25  A    between atoms: O_39  and  C_83 
REMARK   26  A    between atoms: O_42  and  C_45 
REMARK   27  A    between atoms: O_47  and  C_51 
REMARK   28  A    between atoms: C_49  and  C_55 
REMARK   29  A    between atoms: O_50  and  C_55 
REMARK   30  A    between atoms: O_50  and  C_61 
REMARK   31  A    between atoms: O_52  and  C_54 
REMARK   32  A    between atoms: C_56  and  O_86 
REMARK   33  A    between atoms: O_57  and  C_67 
REMARK   34  A    between atoms: C_61  and  C_62 
REMARK   35  A    between atoms: C_62  and  O_64 
REMARK   36  A    between atoms: C_67  and  C_68 
REMARK   37  A    between atoms: C_68  and  O_69 
REMARK   38  A    between atoms: C_72  and  C_73 
REMARK   39  A    between atoms: C_73  and  O_74 
REMARK   40  A    between atoms: C_78  and  O_79 
REMARK   41  A    between atoms: C_83  and  O_84 
ROOT
HETATM    1  C   UNL     1       8.702 -20.935   8.833  1.00  0.00     0.187 C 
HETATM    2  C   UNL     1       7.230 -21.341   9.128  1.00  0.00     0.180 C 
HETATM    3  C   UNL     1       8.861 -20.563   7.342  1.00  0.00     0.183 C 
HETATM    4  C   UNL     1       7.756 -19.573   6.898  1.00  0.00     0.204 C 
HETATM    5  C   UNL     1       6.393 -20.211   7.222  1.00  0.00     0.292 C 
HETATM    6  O   UNL     1       6.289 -20.390   8.628  1.00  0.00    -0.348 OA
ENDROOT
BRANCH   1   7
HETATM    7  O   UNL     1       9.069 -19.828   9.656  1.00  0.00    -0.348 OA
BRANCH   7   8
HETATM    8  C   UNL     1      10.079 -20.184  10.601  1.00  0.00     0.292 C 
HETATM    9  O   UNL     1      10.391 -21.565  10.520  1.00  0.00    -0.348 OA
HETATM   10  C   UNL     1      11.577 -21.900  11.269  1.00  0.00     0.180 C 
HETATM   11  C   UNL     1      11.833 -20.985  12.526  1.00  0.00     0.187 C 
HETATM   12  C   UNL     1      10.462 -20.599  13.114  1.00  0.00     0.183 C 
HETATM   13  C   UNL     1       9.631 -19.819  12.045  1.00  0.00     0.204 C 
BRANCH  10  14
HETATM   14  C   UNL     1      12.808 -21.965  10.338  1.00  0.00     0.203 C 
BRANCH  14  15
HETATM   15  O   UNL     1      12.467 -22.158   8.983  1.00  0.00    -0.370 OA
BRANCH  15  16
HETATM   16  C   UNL     1      13.610 -22.029   8.185  1.00  0.00     0.262 C 
BRANCH  16  17
HETATM   17  C   UNL     1      13.983 -20.586   8.093  1.00  0.00     0.321 C 
HETATM   18  O   UNL     1      13.164 -19.765   7.710  1.00  0.00    -0.260 OA
BRANCH  17  19
HETATM   19  O   UNL     1      15.217 -20.180   8.446  1.00  0.00    -0.147 OA
HETATM   20 Na   UNL     1      15.622 -18.253   8.851  1.00  0.00     0.000 Na
ENDBRANCH  17  19
ENDBRANCH  16  17
ENDBRANCH  15  16
ENDBRANCH  14  15
ENDBRANCH  10  14
BRANCH  11  21
HETATM   21  O   UNL     1      12.573 -21.689  13.521  1.00  0.00    -0.348 OA
BRANCH  21  22
HETATM   22  C   UNL     1      13.521 -20.900  14.229  1.00  0.00     0.292 C 
HETATM   23  O   UNL     1      13.568 -19.576  13.674  1.00  0.00    -0.351 OA
HETATM   24  C   UNL     1      14.726 -19.322  12.905  1.00  0.00     0.151 C 
HETATM   25  C   UNL     1      16.016 -19.439  13.757  1.00  0.00     0.068 C 
HETATM   26  C   UNL     1      15.929 -20.619  14.753  1.00  0.00     0.154 C 
HETATM   27  C   UNL     1      14.889 -21.653  14.293  1.00  0.00     0.202 C 
BRANCH  24  28
HETATM   28  C   UNL     1      14.643 -17.926  12.263  1.00  0.00     0.200 C 
BRANCH  28  29
HETATM   29  O   UNL     1      15.427 -16.974  12.959  1.00  0.00    -0.379 OA
BRANCH  29  30
HETATM   30  C   UNL     1      14.615 -16.027  13.631  1.00  0.00     0.281 C 
BRANCH  30  31
HETATM   31  C   UNL     1      15.344 -14.722  13.762  1.00  0.00     0.313 C 
HETATM   32  O   UNL     1      16.420 -14.660  14.338  1.00  0.00    -0.260 OA
BRANCH  31  33
HETATM   33  O   UNL     1      14.811 -13.607  13.231  1.00  0.00    -0.148 OA
HETATM   34 Na   UNL     1      14.799 -11.890  14.288  1.00  0.00     0.000 Na
ENDBRANCH  31  33
ENDBRANCH  30  31
ENDBRANCH  29  30
ENDBRANCH  28  29
ENDBRANCH  24  28
BRANCH  26  35
HETATM   35  O   UNL     1      17.192 -21.177  15.016  1.00  0.00    -0.393 OA
HETATM   36  H   UNL     1      17.741 -20.480  15.461  1.00  0.00     0.210 HD
ENDBRANCH  26  35
BRANCH  27  37
HETATM   37  O   UNL     1      15.232 -22.184  13.036  1.00  0.00    -0.388 OA
HETATM   38  H   UNL     1      14.890 -21.553  12.351  1.00  0.00     0.210 HD
ENDBRANCH  27  37
ENDBRANCH  21  22
ENDBRANCH  11  21
BRANCH  12  39
HETATM   39  O   UNL     1       9.792 -21.752  13.580  1.00  0.00    -0.390 OA
HETATM   40  H   UNL     1      10.408 -22.288  14.140  1.00  0.00     0.210 HD
ENDBRANCH  12  39
BRANCH  13  41
HETATM   41  O   UNL     1       8.251 -19.983  12.268  1.00  0.00    -0.388 OA
HETATM   42  H   UNL     1       7.765 -19.576  11.504  1.00  0.00     0.210 HD
ENDBRANCH  13  41
ENDBRANCH   7   8
ENDBRANCH   1   7
BRANCH   2  43
HETATM   43  C   UNL     1       6.873 -22.797   8.703  1.00  0.00     0.203 C 
BRANCH  43  44
HETATM   44  O   UNL     1       5.760 -23.341   9.386  1.00  0.00    -0.370 OA
BRANCH  44  45
HETATM   45  C   UNL     1       4.598 -23.231   8.601  1.00  0.00     0.262 C 
BRANCH  45  46
HETATM   46  C   UNL     1       3.776 -24.477   8.654  1.00  0.00     0.321 C 
HETATM   47  O   UNL     1       4.292 -25.566   8.845  1.00  0.00    -0.260 OA
BRANCH  46  48
HETATM   48  O   UNL     1       2.445 -24.390   8.470  1.00  0.00    -0.147 OA
HETATM   49 Na   UNL     1       1.451 -22.829   9.274  1.00  0.00     0.000 Na
ENDBRANCH  46  48
ENDBRANCH  45  46
ENDBRANCH  44  45
ENDBRANCH  43  44
ENDBRANCH   2  43
BRANCH   3  50
HETATM   50  O   UNL     1      10.141 -20.031   7.115  1.00  0.00    -0.390 OA
HETATM   51  H   UNL     1      10.084 -19.055   7.292  1.00  0.00     0.210 HD
ENDBRANCH   3  50
BRANCH   4  52
HETATM   52  O   UNL     1       7.866 -18.346   7.577  1.00  0.00    -0.388 OA
HETATM   53  H   UNL     1       8.420 -17.750   7.009  1.00  0.00     0.210 HD
ENDBRANCH   4  52
BRANCH   5  54
HETATM   54  O   UNL     1       5.337 -19.357   6.800  1.00  0.00    -0.348 OA
BRANCH  54  55
HETATM   55  C   UNL     1       4.708 -19.783   5.589  1.00  0.00     0.187 C 
HETATM   56  C   UNL     1       3.166 -19.954   5.776  1.00  0.00     0.180 C 
HETATM   57  O   UNL     1       2.368 -19.436   4.715  1.00  0.00    -0.348 OA
HETATM   58  C   UNL     1       2.816 -19.675   3.393  1.00  0.00     0.292 C 
HETATM   59  C   UNL     1       4.328 -19.339   3.197  1.00  0.00     0.204 C 
HETATM   60  C   UNL     1       4.974 -18.765   4.475  1.00  0.00     0.183 C 
BRANCH  56  61
HETATM   61  C   UNL     1       2.767 -21.409   6.096  1.00  0.00     0.208 C 
BRANCH  61  62
HETATM   62  O   UNL     1       1.489 -21.734   5.577  1.00  0.00    -0.327 OA
BRANCH  62  63
HETATM   63  C   UNL     1       0.384 -21.480   6.435  1.00  0.00     0.339 C 
HETATM   64  C   UNL     1      -0.497 -22.720   6.457  1.00  0.00     0.115 C 
HETATM   65  O   UNL     1       0.866 -21.240   7.721  1.00  0.00    -0.163 OA
BRANCH  63  66
HETATM   66  O   UNL     1      -0.401 -20.386   6.045  1.00  0.00    -0.163 OA
HETATM   67 Na   UNL     1      -2.318 -20.947   6.446  1.00  0.00     0.000 Na
ENDBRANCH  63  66
ENDBRANCH  62  63
ENDBRANCH  61  62
ENDBRANCH  56  61
BRANCH  58  68
HETATM   68  O   UNL     1       2.025 -18.838   2.557  1.00  0.00    -0.348 OA
BRANCH  68  69
HETATM   69  C   UNL     1       0.898 -19.489   1.986  1.00  0.00     0.187 C 
HETATM   70  C   UNL     1       0.445 -18.756   0.669  1.00  0.00     0.177 C 
HETATM   71  O   UNL     1      -0.352 -19.556  -0.219  1.00  0.00    -0.378 OA
HETATM   72  C   UNL     1      -1.008 -20.611   0.447  1.00  0.00     0.202 C 
HETATM   73  C   UNL     1       0.011 -21.639   1.011  1.00  0.00     0.173 C 
HETATM   74  C   UNL     1       1.269 -20.932   1.599  1.00  0.00     0.180 C 
BRANCH  70  75
HETATM   75  C   UNL     1      -0.264 -17.424   0.963  1.00  0.00     0.208 C 
BRANCH  75  76
HETATM   76  O   UNL     1      -0.460 -16.658  -0.215  1.00  0.00    -0.327 OA
BRANCH  76  77
HETATM   77  C   UNL     1      -1.155 -15.425  -0.051  1.00  0.00     0.339 C 
HETATM   78  C   UNL     1      -2.166 -15.280  -1.182  1.00  0.00     0.115 C 
HETATM   79  O   UNL     1      -1.844 -15.474   1.161  1.00  0.00    -0.163 OA
BRANCH  77  80
HETATM   80  O   UNL     1      -0.318 -14.299  -0.035  1.00  0.00    -0.163 OA
HETATM   81 Na   UNL     1       1.569 -15.037  -0.257  1.00  0.00     0.000 Na
ENDBRANCH  77  80
ENDBRANCH  76  77
ENDBRANCH  75  76
ENDBRANCH  70  75
BRANCH  73  82
HETATM   82  O   UNL     1       0.375 -22.630   0.080  1.00  0.00    -0.391 OA
HETATM   83  H   UNL     1       1.361 -22.609  -0.027  1.00  0.00     0.210 HD
ENDBRANCH  73  82
BRANCH  74  84
HETATM   84  O   UNL     1       2.363 -20.931   0.706  1.00  0.00    -0.390 OA
HETATM   85  H   UNL     1       2.657 -20.000   0.541  1.00  0.00     0.210 HD
ENDBRANCH  74  84
ENDBRANCH  68  69
ENDBRANCH  58  68
BRANCH  59  86
HETATM   86  O   UNL     1       4.575 -18.534   2.071  1.00  0.00    -0.388 OA
HETATM   87  H   UNL     1       5.189 -19.032   1.473  1.00  0.00     0.210 HD
ENDBRANCH  59  86
BRANCH  60  88
HETATM   88  O   UNL     1       4.419 -17.513   4.790  1.00  0.00    -0.390 OA
HETATM   89  H   UNL     1       4.543 -16.936   3.993  1.00  0.00     0.210 HD
ENDBRANCH  60  88
ENDBRANCH  54  55
ENDBRANCH   5  54
TORSDOF 41
ENDMDL
MODEL 8
REMARK VINA RESULT:      -5.8      5.559     10.981
REMARK WARNING: 32 MAX_TORS EXCEEDED!!!
REMARK  41 active torsions:
REMARK  status: ('A' for Active; 'I' for Inactive)
REMARK    1  A    between atoms: C_1  and  O_29 
REMARK    2  A    between atoms: C_2  and  C_6 
REMARK    3  A    between atoms: C_3  and  O_9 
REMARK    4  A    between atoms: C_4  and  O_88 
REMARK    5  A    between atoms: C_5  and  O_11 
REMARK    6  A    between atoms: C_6  and  O_7 
REMARK    7  A    between atoms: O_7  and  C_72 
REMARK    8  A    between atoms: O_11  and  C_19 
REMARK    9  A    between atoms: O_13  and  C_17 
REMARK   10  A    between atoms: C_15  and  C_22 
REMARK   11  A    between atoms: O_16  and  C_22 
REMARK   12  A    between atoms: O_16  and  C_78 
REMARK   13  A    between atoms: O_18  and  C_21 
REMARK   14  A    between atoms: O_18  and  C_41 
REMARK   15  A    between atoms: O_20  and  C_23 
REMARK   16  A    between atoms: O_25  and  C_28 
REMARK   17  A    between atoms: C_27  and  C_33 
REMARK   18  A    between atoms: O_29  and  C_32 
REMARK   19  A    between atoms: C_30  and  O_52 
REMARK   20  A    between atoms: O_31  and  C_34 
REMARK   21  A    between atoms: C_33  and  O_57 
REMARK   22  A    between atoms: O_36  and  C_40 
REMARK   23  A    between atoms: C_38  and  C_44 
REMARK   24  A    between atoms: O_39  and  C_44 
REMARK   25  A    between atoms: O_39  and  C_83 
REMARK   26  A    between atoms: O_42  and  C_45 
REMARK   27  A    between atoms: O_47  and  C_51 
REMARK   28  A    between atoms: C_49  and  C_55 
REMARK   29  A    between atoms: O_50  and  C_55 
REMARK   30  A    between atoms: O_50  and  C_61 
REMARK   31  A    between atoms: O_52  and  C_54 
REMARK   32  A    between atoms: C_56  and  O_86 
REMARK   33  A    between atoms: O_57  and  C_67 
REMARK   34  A    between atoms: C_61  and  C_62 
REMARK   35  A    between atoms: C_62  and  O_64 
REMARK   36  A    between atoms: C_67  and  C_68 
REMARK   37  A    between atoms: C_68  and  O_69 
REMARK   38  A    between atoms: C_72  and  C_73 
REMARK   39  A    between atoms: C_73  and  O_74 
REMARK   40  A    between atoms: C_78  and  O_79 
REMARK   41  A    between atoms: C_83  and  O_84 
ROOT
HETATM    1  C   UNL     1       9.697 -20.709   8.677  1.00  0.00     0.187 C 
HETATM    2  C   UNL     1       8.368 -21.512   8.584  1.00  0.00     0.180 C 
HETATM    3  C   UNL     1       9.836 -19.770   7.458  1.00  0.00     0.183 C 
HETATM    4  C   UNL     1       8.537 -18.957   7.235  1.00  0.00     0.204 C 
HETATM    5  C   UNL     1       7.373 -19.955   7.103  1.00  0.00     0.292 C 
HETATM    6  O   UNL     1       7.241 -20.676   8.320  1.00  0.00    -0.348 OA
ENDROOT
BRANCH   1   7
HETATM    7  O   UNL     1       9.716 -19.949   9.885  1.00  0.00    -0.348 OA
BRANCH   7   8
HETATM    8  C   UNL     1      10.835 -20.286  10.704  1.00  0.00     0.292 C 
HETATM    9  O   UNL     1      11.120 -21.675  10.637  1.00  0.00    -0.348 OA
HETATM   10  C   UNL     1      12.388 -22.001  11.238  1.00  0.00     0.180 C 
HETATM   11  C   UNL     1      12.816 -21.044  12.416  1.00  0.00     0.187 C 
HETATM   12  C   UNL     1      11.538 -20.615  13.160  1.00  0.00     0.183 C 
HETATM   13  C   UNL     1      10.584 -19.861  12.179  1.00  0.00     0.204 C 
BRANCH  10  14
HETATM   14  C   UNL     1      13.488 -22.120  10.159  1.00  0.00     0.203 C 
BRANCH  14  15
HETATM   15  O   UNL     1      14.233 -20.934   9.996  1.00  0.00    -0.370 OA
BRANCH  15  16
HETATM   16  C   UNL     1      15.201 -21.117   9.001  1.00  0.00     0.262 C 
BRANCH  16  17
HETATM   17  C   UNL     1      14.596 -20.824   7.668  1.00  0.00     0.321 C 
HETATM   18  O   UNL     1      14.962 -21.441   6.681  1.00  0.00    -0.260 OA
BRANCH  17  19
HETATM   19  O   UNL     1      13.634 -19.889   7.551  1.00  0.00    -0.147 OA
HETATM   20 Na   UNL     1      12.893 -18.927   9.153  1.00  0.00     0.000 Na
ENDBRANCH  17  19
ENDBRANCH  16  17
ENDBRANCH  15  16
ENDBRANCH  14  15
ENDBRANCH  10  14
BRANCH  11  21
HETATM   21  O   UNL     1      13.672 -21.723  13.333  1.00  0.00    -0.348 OA
BRANCH  21  22
HETATM   22  C   UNL     1      14.244 -20.897  14.337  1.00  0.00     0.292 C 
HETATM   23  O   UNL     1      14.865 -19.750  13.735  1.00  0.00    -0.351 OA
HETATM   24  C   UNL     1      16.277 -19.805  13.725  1.00  0.00     0.151 C 
HETATM   25  C   UNL     1      16.856 -19.858  15.162  1.00  0.00     0.068 C 
HETATM   26  C   UNL     1      16.001 -20.758  16.084  1.00  0.00     0.154 C 
HETATM   27  C   UNL     1      15.168 -21.754  15.262  1.00  0.00     0.202 C 
BRANCH  24  28
HETATM   28  C   UNL     1      16.851 -18.596  12.968  1.00  0.00     0.200 C 
BRANCH  28  29
HETATM   29  O   UNL     1      15.944 -17.509  12.937  1.00  0.00    -0.379 OA
BRANCH  29  30
HETATM   30  C   UNL     1      16.360 -16.463  13.798  1.00  0.00     0.281 C 
BRANCH  30  31
HETATM   31  C   UNL     1      15.270 -15.441  13.932  1.00  0.00     0.313 C 
HETATM   32  O   UNL     1      15.523 -14.246  13.906  1.00  0.00    -0.260 OA
BRANCH  31  33
HETATM   33  O   UNL     1      13.994 -15.845  14.075  1.00  0.00    -0.148 OA
HETATM   34 Na   UNL     1      13.478 -17.740  13.623  1.00  0.00     0.000 Na
ENDBRANCH  31  33
ENDBRANCH  30  31
ENDBRANCH  29  30
ENDBRANCH  28  29
ENDBRANCH  24  28
BRANCH  26  35
HETATM   35  O   UNL     1      16.775 -21.371  17.084  1.00  0.00    -0.393 OA
HETATM   36  H   UNL     1      17.341 -22.059  16.646  1.00  0.00     0.210 HD
ENDBRANCH  26  35
BRANCH  27  37
HETATM   37  O   UNL     1      16.001 -22.596  14.501  1.00  0.00    -0.388 OA
HETATM   38  H   UNL     1      16.200 -22.120  13.654  1.00  0.00     0.210 HD
ENDBRANCH  27  37
ENDBRANCH  21  22
ENDBRANCH  11  21
BRANCH  12  39
HETATM   39  O   UNL     1      10.922 -21.740  13.753  1.00  0.00    -0.390 OA
HETATM   40  H   UNL     1       9.947 -21.711  13.581  1.00  0.00     0.210 HD
ENDBRANCH  12  39
BRANCH  13  41
HETATM   41  O   UNL     1       9.243 -19.996  12.585  1.00  0.00    -0.388 OA
HETATM   42  H   UNL     1       8.835 -20.733  12.061  1.00  0.00     0.210 HD
ENDBRANCH  13  41
ENDBRANCH   7   8
ENDBRANCH   1   7
BRANCH   2  43
HETATM   43  C   UNL     1       8.429 -22.736   7.620  1.00  0.00     0.203 C 
BRANCH  43  44
HETATM   44  O   UNL     1       9.143 -23.842   8.138  1.00  0.00    -0.370 OA
BRANCH  44  45
HETATM   45  C   UNL     1       8.518 -24.334   9.298  1.00  0.00     0.262 C 
BRANCH  45  46
HETATM   46  C   UNL     1       9.510 -24.640  10.372  1.00  0.00     0.321 C 
HETATM   47  O   UNL     1      10.586 -25.153  10.109  1.00  0.00    -0.260 OA
BRANCH  46  48
HETATM   48  O   UNL     1       9.198 -24.356  11.650  1.00  0.00    -0.147 OA
HETATM   49 Na   UNL     1       9.222 -22.431  12.253  1.00  0.00     0.000 Na
ENDBRANCH  46  48
ENDBRANCH  45  46
ENDBRANCH  44  45
ENDBRANCH  43  44
ENDBRANCH   2  43
BRANCH   3  50
HETATM   50  O   UNL     1      10.943 -18.924   7.630  1.00  0.00    -0.390 OA
HETATM   51  H   UNL     1      10.860 -18.520   8.534  1.00  0.00     0.210 HD
ENDBRANCH   3  50
BRANCH   4  52
HETATM   52  O   UNL     1       8.285 -18.092   8.314  1.00  0.00    -0.388 OA
HETATM   53  H   UNL     1       7.923 -18.648   9.052  1.00  0.00     0.210 HD
ENDBRANCH   4  52
BRANCH   5  54
HETATM   54  O   UNL     1       6.155 -19.262   6.859  1.00  0.00    -0.348 OA
BRANCH  54  55
HETATM   55  C   UNL     1       5.170 -20.055   6.192  1.00  0.00     0.187 C 
HETATM   56  C   UNL     1       3.858 -20.162   7.036  1.00  0.00     0.180 C 
HETATM   57  O   UNL     1       2.650 -20.014   6.294  1.00  0.00    -0.348 OA
HETATM   58  C   UNL     1       2.579 -20.661   5.037  1.00  0.00     0.292 C 
HETATM   59  C   UNL     1       3.838 -20.400   4.150  1.00  0.00     0.204 C 
HETATM   60  C   UNL     1       4.845 -19.445   4.825  1.00  0.00     0.183 C 
BRANCH  56  61
HETATM   61  C   UNL     1       3.813 -21.440   7.898  1.00  0.00     0.208 C 
BRANCH  61  62
HETATM   62  O   UNL     1       4.704 -22.433   7.418  1.00  0.00    -0.327 OA
BRANCH  62  63
HETATM   63  C   UNL     1       4.177 -23.751   7.324  1.00  0.00     0.339 C 
HETATM   64  C   UNL     1       3.128 -23.923   8.412  1.00  0.00     0.115 C 
HETATM   65  O   UNL     1       3.568 -23.897   6.078  1.00  0.00    -0.163 OA
BRANCH  63  66
HETATM   66  O   UNL     1       5.137 -24.761   7.469  1.00  0.00    -0.163 OA
HETATM   67 Na   UNL     1       5.214 -25.676   5.651  1.00  0.00     0.000 Na
ENDBRANCH  63  66
ENDBRANCH  62  63
ENDBRANCH  61  62
ENDBRANCH  56  61
BRANCH  58  68
HETATM   68  O   UNL     1       1.422 -20.138   4.395  1.00  0.00    -0.348 OA
BRANCH  68  69
HETATM   69  C   UNL     1       0.475 -21.126   4.015  1.00  0.00     0.187 C 
HETATM   70  C   UNL     1      -0.899 -20.885   4.744  1.00  0.00     0.177 C 
HETATM   71  O   UNL     1      -2.031 -21.507   4.115  1.00  0.00    -0.378 OA
HETATM   72  C   UNL     1      -1.665 -22.606   3.312  1.00  0.00     0.202 C 
HETATM   73  C   UNL     1      -0.804 -22.156   2.101  1.00  0.00     0.173 C 
HETATM   74  C   UNL     1       0.207 -21.040   2.501  1.00  0.00     0.180 C 
BRANCH  70  75
HETATM   75  C   UNL     1      -0.840 -21.273   6.231  1.00  0.00     0.208 C 
BRANCH  75  76
HETATM   76  O   UNL     1      -2.103 -21.136   6.863  1.00  0.00    -0.327 OA
BRANCH  76  77
HETATM   77  C   UNL     1      -2.696 -22.340   7.342  1.00  0.00     0.339 C 
HETATM   78  C   UNL     1      -1.645 -23.444   7.321  1.00  0.00     0.115 C 
HETATM   79  O   UNL     1      -3.097 -22.130   8.662  1.00  0.00    -0.163 OA
BRANCH  77  80
HETATM   80  O   UNL     1      -3.814 -22.756   6.604  1.00  0.00    -0.163 OA
HETATM   81 Na   UNL     1      -5.395 -22.549   7.874  1.00  0.00     0.000 Na
ENDBRANCH  77  80
ENDBRANCH  76  77
ENDBRANCH  75  76
ENDBRANCH  70  75
BRANCH  73  82
HETATM   82  O   UNL     1      -1.571 -21.768   0.986  1.00  0.00    -0.391 OA
HETATM   83  H   UNL     1      -1.391 -22.406   0.247  1.00  0.00     0.210 HD
ENDBRANCH  73  82
BRANCH  74  84
HETATM   84  O   UNL     1      -0.243 -19.746   2.160  1.00  0.00    -0.390 OA
HETATM   85  H   UNL     1      -0.021 -19.556   1.213  1.00  0.00     0.210 HD
ENDBRANCH  74  84
ENDBRANCH  68  69
ENDBRANCH  58  68
BRANCH  59  86
HETATM   86  O   UNL     1       3.520 -19.996   2.842  1.00  0.00    -0.388 OA
HETATM   87  H   UNL     1       3.173 -20.788   2.358  1.00  0.00     0.210 HD
ENDBRANCH  59  86
BRANCH  60  88
HETATM   88  O   UNL     1       4.293 -18.159   4.961  1.00  0.00    -0.390 OA
HETATM   89  H   UNL     1       4.290 -17.951   5.931  1.00  0.00     0.210 HD
ENDBRANCH  60  88
ENDBRANCH  54  55
ENDBRANCH   5  54
TORSDOF 41
ENDMDL
MODEL 9
REMARK VINA RESULT:      -5.7      4.648     14.103
REMARK WARNING: 32 MAX_TORS EXCEEDED!!!
REMARK  41 active torsions:
REMARK  status: ('A' for Active; 'I' for Inactive)
REMARK    1  A    between atoms: C_1  and  O_29 
REMARK    2  A    between atoms: C_2  and  C_6 
REMARK    3  A    between atoms: C_3  and  O_9 
REMARK    4  A    between atoms: C_4  and  O_88 
REMARK    5  A    between atoms: C_5  and  O_11 
REMARK    6  A    between atoms: C_6  and  O_7 
REMARK    7  A    between atoms: O_7  and  C_72 
REMARK    8  A    between atoms: O_11  and  C_19 
REMARK    9  A    between atoms: O_13  and  C_17 
REMARK   10  A    between atoms: C_15  and  C_22 
REMARK   11  A    between atoms: O_16  and  C_22 
REMARK   12  A    between atoms: O_16  and  C_78 
REMARK   13  A    between atoms: O_18  and  C_21 
REMARK   14  A    between atoms: O_18  and  C_41 
REMARK   15  A    between atoms: O_20  and  C_23 
REMARK   16  A    between atoms: O_25  and  C_28 
REMARK   17  A    between atoms: C_27  and  C_33 
REMARK   18  A    between atoms: O_29  and  C_32 
REMARK   19  A    between atoms: C_30  and  O_52 
REMARK   20  A    between atoms: O_31  and  C_34 
REMARK   21  A    between atoms: C_33  and  O_57 
REMARK   22  A    between atoms: O_36  and  C_40 
REMARK   23  A    between atoms: C_38  and  C_44 
REMARK   24  A    between atoms: O_39  and  C_44 
REMARK   25  A    between atoms: O_39  and  C_83 
REMARK   26  A    between atoms: O_42  and  C_45 
REMARK   27  A    between atoms: O_47  and  C_51 
REMARK   28  A    between atoms: C_49  and  C_55 
REMARK   29  A    between atoms: O_50  and  C_55 
REMARK   30  A    between atoms: O_50  and  C_61 
REMARK   31  A    between atoms: O_52  and  C_54 
REMARK   32  A    between atoms: C_56  and  O_86 
REMARK   33  A    between atoms: O_57  and  C_67 
REMARK   34  A    between atoms: C_61  and  C_62 
REMARK   35  A    between atoms: C_62  and  O_64 
REMARK   36  A    between atoms: C_67  and  C_68 
REMARK   37  A    between atoms: C_68  and  O_69 
REMARK   38  A    between atoms: C_72  and  C_73 
REMARK   39  A    between atoms: C_73  and  O_74 
REMARK   40  A    between atoms: C_78  and  O_79 
REMARK   41  A    between atoms: C_83  and  O_84 
ROOT
HETATM    1  C   UNL     1      14.390 -13.184  17.078  1.00  0.00     0.187 C 
HETATM    2  C   UNL     1      15.418 -12.895  18.209  1.00  0.00     0.180 C 
HETATM    3  C   UNL     1      13.298 -12.090  17.061  1.00  0.00     0.183 C 
HETATM    4  C   UNL     1      13.931 -10.677  17.093  1.00  0.00     0.204 C 
HETATM    5  C   UNL     1      14.850 -10.599  18.326  1.00  0.00     0.292 C 
HETATM    6  O   UNL     1      15.896 -11.550  18.183  1.00  0.00    -0.348 OA
ENDROOT
BRANCH   1   7
HETATM    7  O   UNL     1      15.060 -13.226  15.818  1.00  0.00    -0.348 OA
BRANCH   7   8
HETATM    8  C   UNL     1      15.547 -14.534  15.522  1.00  0.00     0.292 C 
HETATM    9  O   UNL     1      16.299 -14.541  14.319  1.00  0.00    -0.348 OA
HETATM   10  C   UNL     1      17.016 -15.777  14.131  1.00  0.00     0.180 C 
HETATM   11  C   UNL     1      16.320 -17.038  14.771  1.00  0.00     0.187 C 
HETATM   12  C   UNL     1      14.796 -16.841  14.657  1.00  0.00     0.183 C 
HETATM   13  C   UNL     1      14.372 -15.549  15.425  1.00  0.00     0.204 C 
BRANCH  10  14
HETATM   14  C   UNL     1      18.485 -15.630  14.590  1.00  0.00     0.203 C 
BRANCH  14  15
HETATM   15  O   UNL     1      19.364 -16.500  13.914  1.00  0.00    -0.370 OA
BRANCH  15  16
HETATM   16  C   UNL     1      20.208 -17.130  14.836  1.00  0.00     0.262 C 
BRANCH  16  17
HETATM   17  C   UNL     1      20.423 -18.547  14.416  1.00  0.00     0.321 C 
HETATM   18  O   UNL     1      21.080 -19.300  15.117  1.00  0.00    -0.260 OA
BRANCH  17  19
HETATM   19  O   UNL     1      19.882 -19.004  13.271  1.00  0.00    -0.147 OA
HETATM   20 Na   UNL     1      18.232 -18.175  12.476  1.00  0.00     0.000 Na
ENDBRANCH  17  19
ENDBRANCH  16  17
ENDBRANCH  15  16
ENDBRANCH  14  15
ENDBRANCH  10  14
BRANCH  11  21
HETATM   21  O   UNL     1      16.680 -18.226  14.068  1.00  0.00    -0.348 OA
BRANCH  21  22
HETATM   22  C   UNL     1      16.212 -19.432  14.657  1.00  0.00     0.292 C 
HETATM   23  O   UNL     1      16.891 -19.665  15.901  1.00  0.00    -0.351 OA
HETATM   24  C   UNL     1      17.857 -20.695  15.839  1.00  0.00     0.151 C 
HETATM   25  C   UNL     1      17.216 -22.059  15.477  1.00  0.00     0.068 C 
HETATM   26  C   UNL     1      16.111 -21.898  14.407  1.00  0.00     0.154 C 
HETATM   27  C   UNL     1      16.297 -20.594  13.616  1.00  0.00     0.202 C 
BRANCH  24  28
HETATM   28  C   UNL     1      18.606 -20.802  17.178  1.00  0.00     0.200 C 
BRANCH  28  29
HETATM   29  O   UNL     1      18.604 -19.577  17.888  1.00  0.00    -0.379 OA
BRANCH  29  30
HETATM   30  C   UNL     1      19.860 -19.328  18.495  1.00  0.00     0.281 C 
BRANCH  30  31
HETATM   31  C   UNL     1      20.220 -17.878  18.362  1.00  0.00     0.313 C 
HETATM   32  O   UNL     1      21.388 -17.523  18.309  1.00  0.00    -0.260 OA
BRANCH  31  33
HETATM   33  O   UNL     1      19.243 -16.955  18.292  1.00  0.00    -0.148 OA
HETATM   34 Na   UNL     1      18.603 -16.031  19.966  1.00  0.00     0.000 Na
ENDBRANCH  31  33
ENDBRANCH  30  31
ENDBRANCH  29  30
ENDBRANCH  28  29
ENDBRANCH  24  28
BRANCH  26  35
HETATM   35  O   UNL     1      16.003 -23.036  13.590  1.00  0.00    -0.393 OA
HETATM   36  H   UNL     1      16.693 -23.685  13.887  1.00  0.00     0.210 HD
ENDBRANCH  26  35
BRANCH  27  37
HETATM   37  O   UNL     1      17.536 -20.585  12.950  1.00  0.00    -0.388 OA
HETATM   38  H   UNL     1      17.684 -21.501  12.598  1.00  0.00     0.210 HD
ENDBRANCH  27  37
ENDBRANCH  21  22
ENDBRANCH  11  21
BRANCH  12  39
HETATM   39  O   UNL     1      14.412 -16.810  13.298  1.00  0.00    -0.390 OA
HETATM   40  H   UNL     1      14.835 -16.034  12.853  1.00  0.00     0.210 HD
ENDBRANCH  12  39
BRANCH  13  41
HETATM   41  O   UNL     1      13.198 -15.002  14.873  1.00  0.00    -0.388 OA
HETATM   42  H   UNL     1      12.437 -15.253  15.458  1.00  0.00     0.210 HD
ENDBRANCH  13  41
ENDBRANCH   7   8
ENDBRANCH   1   7
BRANCH   2  43
HETATM   43  C   UNL     1      14.939 -13.321  19.629  1.00  0.00     0.203 C 
BRANCH  43  44
HETATM   44  O   UNL     1      14.490 -14.660  19.709  1.00  0.00    -0.370 OA
BRANCH  44  45
HETATM   45  C   UNL     1      15.557 -15.519  20.030  1.00  0.00     0.262 C 
BRANCH  45  46
HETATM   46  C   UNL     1      15.989 -15.355  21.451  1.00  0.00     0.321 C 
HETATM   47  O   UNL     1      17.151 -15.110  21.732  1.00  0.00    -0.260 OA
BRANCH  46  48
HETATM   48  O   UNL     1      15.078 -15.497  22.432  1.00  0.00    -0.147 OA
HETATM   49 Na   UNL     1      15.709 -15.540  24.348  1.00  0.00     0.000 Na
ENDBRANCH  46  48
ENDBRANCH  45  46
ENDBRANCH  44  45
ENDBRANCH  43  44
ENDBRANCH   2  43
BRANCH   3  50
HETATM   50  O   UNL     1      12.474 -12.254  15.936  1.00  0.00    -0.390 OA
HETATM   51  H   UNL     1      11.762 -11.564  15.998  1.00  0.00     0.210 HD
ENDBRANCH   3  50
BRANCH   4  52
HETATM   52  O   UNL     1      14.689 -10.431  15.935  1.00  0.00    -0.388 OA
HETATM   53  H   UNL     1      15.557 -10.897  16.052  1.00  0.00     0.210 HD
ENDBRANCH   4  52
BRANCH   5  54
HETATM   54  O   UNL     1      15.431  -9.305  18.425  1.00  0.00    -0.348 OA
BRANCH  54  55
HETATM   55  C   UNL     1      15.710  -8.906  19.770  1.00  0.00     0.187 C 
HETATM   56  C   UNL     1      17.078  -8.157  19.871  1.00  0.00     0.180 C 
HETATM   57  O   UNL     1      17.069  -6.993  20.693  1.00  0.00    -0.348 OA
HETATM   58  C   UNL     1      16.366  -7.072  21.919  1.00  0.00     0.292 C 
HETATM   59  C   UNL     1      14.936  -7.677  21.758  1.00  0.00     0.204 C 
HETATM   60  C   UNL     1      14.593  -7.994  20.287  1.00  0.00     0.183 C 
BRANCH  56  61
HETATM   61  C   UNL     1      18.237  -9.095  20.267  1.00  0.00     0.208 C 
BRANCH  61  62
HETATM   62  O   UNL     1      19.430  -8.785  19.567  1.00  0.00    -0.327 OA
BRANCH  62  63
HETATM   63  C   UNL     1      20.639  -8.923  20.304  1.00  0.00     0.339 C 
HETATM   64  C   UNL     1      20.968 -10.404  20.408  1.00  0.00     0.115 C 
HETATM   65  O   UNL     1      21.659  -8.277  19.607  1.00  0.00    -0.163 OA
BRANCH  63  66
HETATM   66  O   UNL     1      20.581  -8.390  21.600  1.00  0.00    -0.163 OA
HETATM   67 Na   UNL     1      21.254  -6.476  21.410  1.00  0.00     0.000 Na
ENDBRANCH  63  66
ENDBRANCH  62  63
ENDBRANCH  61  62
ENDBRANCH  56  61
BRANCH  58  68
HETATM   68  O   UNL     1      16.272  -5.736  22.400  1.00  0.00    -0.348 OA
BRANCH  68  69
HETATM   69  C   UNL     1      17.024  -5.493  23.581  1.00  0.00     0.187 C 
HETATM   70  C   UNL     1      17.143  -6.806  24.441  1.00  0.00     0.177 C 
HETATM   71  O   UNL     1      18.229  -6.811  25.382  1.00  0.00    -0.378 OA
HETATM   72  C   UNL     1      18.642  -5.510  25.736  1.00  0.00     0.202 C 
HETATM   73  C   UNL     1      19.248  -4.762  24.518  1.00  0.00     0.173 C 
HETATM   74  C   UNL     1      18.454  -5.060  23.211  1.00  0.00     0.180 C 
BRANCH  70  75
HETATM   75  C   UNL     1      15.824  -7.154  25.152  1.00  0.00     0.208 C 
BRANCH  75  76
HETATM   76  O   UNL     1      14.959  -6.033  25.237  1.00  0.00    -0.327 OA
BRANCH  76  77
HETATM   77  C   UNL     1      13.693  -6.266  25.850  1.00  0.00     0.339 C 
HETATM   78  C   UNL     1      13.747  -7.598  26.589  1.00  0.00     0.115 C 
HETATM   79  O   UNL     1      13.467  -5.249  26.777  1.00  0.00    -0.163 OA
BRANCH  77  80
HETATM   80  O   UNL     1      12.620  -6.285  24.947  1.00  0.00    -0.163 OA
HETATM   81 Na   UNL     1      11.547  -4.602  25.364  1.00  0.00     0.000 Na
ENDBRANCH  77  80
ENDBRANCH  76  77
ENDBRANCH  75  76
ENDBRANCH  70  75
BRANCH  73  82
HETATM   82  O   UNL     1      20.623  -5.006  24.343  1.00  0.00    -0.391 OA
HETATM   83  H   UNL     1      21.110  -4.607  25.110  1.00  0.00     0.210 HD
ENDBRANCH  73  82
BRANCH  74  84
HETATM   84  O   UNL     1      19.069  -6.047  22.410  1.00  0.00    -0.390 OA
HETATM   85  H   UNL     1      19.870  -6.401  22.875  1.00  0.00     0.210 HD
ENDBRANCH  74  84
ENDBRANCH  68  69
ENDBRANCH  58  68
BRANCH  59  86
HETATM   86  O   UNL     1      13.937  -6.910  22.381  1.00  0.00    -0.388 OA
HETATM   87  H   UNL     1      13.918  -6.022  21.939  1.00  0.00     0.210 HD
ENDBRANCH  59  86
BRANCH  60  88
HETATM   88  O   UNL     1      14.513  -6.811  19.532  1.00  0.00    -0.390 OA
HETATM   89  H   UNL     1      14.573  -6.058  20.174  1.00  0.00     0.210 HD
ENDBRANCH  60  88
ENDBRANCH  54  55
ENDBRANCH   5  54
TORSDOF 41
ENDMDL
