MODEL 1
REMARK VINA RESULT:      -6.6      0.000      0.000
REMARK WARNING: 32 MAX_TORS EXCEEDED!!!
REMARK  36 active torsions:
REMARK  status: ('A' for Active; 'I' for Inactive)
REMARK    1  A    between atoms: C_1  and  O_66 
REMARK    2  A    between atoms: C_2  and  O_47 
REMARK    3  A    between atoms: C_4  and  O_40 
REMARK    4  A    between atoms: C_5  and  O_15 
REMARK    5  A    between atoms: C_7  and  C_17 
REMARK    6  A    between atoms: C_8  and  O_9 
REMARK    7  A    between atoms: C_11  and  N_12 
REMARK    8  A    between atoms: N_12  and  C_20 
REMARK    9  A    between atoms: C_14  and  O_15 
REMARK   10  A    between atoms: C_17  and  O_18 
REMARK   11  A    between atoms: C_20  and  O_21 
REMARK   12  A    between atoms: C_20  and  C_23 
REMARK   13  A    between atoms: C_23  and  N_24 
REMARK   14  A    between atoms: C_27  and  C_28 
REMARK   15  A    between atoms: C_28  and  O_29 
REMARK   16  A    between atoms: C_32  and  O_40 
REMARK   17  A    between atoms: C_33  and  N_34 
REMARK   18  A    between atoms: C_37  and  O_38 
REMARK   19  A    between atoms: C_41  and  C_42 
REMARK   20  A    between atoms: C_42  and  O_43 
REMARK   21  A    between atoms: C_46  and  O_47 
REMARK   22  A    between atoms: C_48  and  N_49 
REMARK       I    between atoms: N_49  and  C_51 
REMARK   23  A    between atoms: C_51  and  C_52 
REMARK   24  A    between atoms: C_52  and  N_54 
REMARK   25  A    between atoms: C_56  and  O_57 
REMARK   26  A    between atoms: C_59  and  O_60 
REMARK   27  A    between atoms: C_62  and  N_63 
REMARK   28  A    between atoms: C_65  and  O_66 
REMARK   29  A    between atoms: C_68  and  C_69 
REMARK   30  A    between atoms: C_69  and  O_70 
REMARK   31  A    between atoms: C_73  and  C_74 
REMARK   32  A    between atoms: C_74  and  O_75 
REMARK   33  A    between atoms: C_79  and  O_80 
REMARK   34  A    between atoms: C_82  and  N_83 
REMARK       I    between atoms: N_83  and  C_85 
REMARK   35  A    between atoms: C_85  and  C_87 
REMARK   36  A    between atoms: C_87  and  N_88 
ROOT
HETATM    1  C   UNL     1       9.243 -21.079   7.950  1.00  0.00     0.186 C 
HETATM    2  C   UNL     1      10.671 -20.487   8.069  1.00  0.00     0.179 C 
HETATM    3  O   UNL     1      11.236 -20.798   9.354  1.00  0.00    -0.349 OA
HETATM    4  C   UNL     1      11.437 -22.221   9.472  1.00  0.00     0.297 C 
HETATM    5  C   UNL     1      10.093 -22.988   9.376  1.00  0.00     0.309 C 
HETATM    6  C   UNL     1       9.388 -22.616   8.049  1.00  0.00     0.188 C 
ENDROOT
BRANCH   1   7
HETATM    7  O   UNL     1       8.385 -20.607   9.008  1.00  0.00    -0.348 OA
BRANCH   7   8
HETATM    8  C   UNL     1       7.026 -20.458   8.561  1.00  0.00     0.296 C 
HETATM    9  O   UNL     1       6.323 -21.647   8.946  1.00  0.00    -0.349 OA
HETATM   10  C   UNL     1       4.902 -21.415   8.862  1.00  0.00     0.179 C 
HETATM   11  C   UNL     1       4.501 -20.644   7.566  1.00  0.00     0.186 C 
HETATM   12  C   UNL     1       5.592 -20.829   6.477  1.00  0.00     0.187 C 
HETATM   13  C   UNL     1       6.951 -20.311   7.017  1.00  0.00     0.303 C 
BRANCH  10  14
HETATM   14  C   UNL     1       4.200 -22.788   8.993  1.00  0.00     0.198 C 
BRANCH  14  15
HETATM   15  O   UNL     1       4.847 -23.748   8.148  1.00  0.00    -0.398 OA
HETATM   16  H   UNL     1       5.217 -23.222   7.409  1.00  0.00     0.209 HD
ENDBRANCH  14  15
ENDBRANCH  10  14
BRANCH  11  17
HETATM   17  O   UNL     1       3.197 -21.059   7.112  1.00  0.00    -0.348 OA
BRANCH  17  18
HETATM   18  C   UNL     1       2.538 -20.039   6.338  1.00  0.00     0.296 C 
HETATM   19  C   UNL     1       2.791 -20.280   4.827  1.00  0.00     0.307 C 
HETATM   20  C   UNL     1       2.077 -21.573   4.361  1.00  0.00     0.163 C 
HETATM   21  C   UNL     1       0.647 -21.529   4.817  1.00  0.00     0.057 C 
HETATM   22  C   UNL     1       0.326 -21.056   6.211  1.00  0.00     0.155 C 
HETATM   23  O   UNL     1       1.124 -19.921   6.614  1.00  0.00    -0.351 OA
BRANCH  19  24
HETATM   24  N   UNL     1       2.284 -19.111   4.063  1.00  0.00     0.125 N 
HETATM   25  H   UNL     1       2.817 -18.289   4.357  1.00  0.00     0.320 HD
BRANCH  24  26
HETATM   26  C   UNL     1       2.510 -19.259   2.605  1.00  0.00     0.369 C 
BRANCH  26  27
HETATM   27  O   UNL     1       3.641 -18.472   2.204  1.00  0.00    -0.367 OA
HETATM   28  H   UNL     1       3.261 -17.649   1.829  1.00  0.00     0.212 HD
ENDBRANCH  26  27
BRANCH  26  29
HETATM   29  C   UNL     1       1.219 -18.822   1.873  1.00  0.00     0.171 C 
BRANCH  29  30
HETATM   30  N   UNL     1       1.013 -19.587   0.619  1.00  0.00    -0.228 NA
HETATM   31  C   UNL     1       1.548 -20.954   0.792  1.00  0.00     0.130 C 
HETATM   32 CL   UNL     1      -0.651 -19.749   0.325  1.00  0.00    -0.022 Cl
ENDBRANCH  29  30
ENDBRANCH  26  29
ENDBRANCH  24  26
ENDBRANCH  19  24
BRANCH  20  33
HETATM   33  O   UNL     1       2.735 -22.740   4.870  1.00  0.00    -0.393 OA
HETATM   34  H   UNL     1       2.435 -23.475   4.295  1.00  0.00     0.210 HD
ENDBRANCH  20  33
BRANCH  22  35
HETATM   35  C   UNL     1       0.400 -22.223   7.226  1.00  0.00     0.196 C 
BRANCH  35  36
HETATM   36  O   UNL     1       0.920 -21.768   8.480  1.00  0.00    -0.398 OA
HETATM   37  H   UNL     1       1.531 -22.474   8.780  1.00  0.00     0.209 HD
ENDBRANCH  35  36
ENDBRANCH  22  35
ENDBRANCH  17  18
ENDBRANCH  11  17
BRANCH  12  38
HETATM   38  O   UNL     1       5.719 -22.208   6.103  1.00  0.00    -0.391 OA
HETATM   39  H   UNL     1       6.020 -22.200   5.170  1.00  0.00     0.210 HD
ENDBRANCH  12  38
BRANCH  13  40
HETATM   40  N   UNL     1       7.144 -18.896   6.640  1.00  0.00     0.090 N 
HETATM   41  H   UNL     1       7.812 -18.871   5.867  1.00  0.00     0.313 HD
HETATM   42  H   UNL     1       6.254 -18.546   6.279  1.00  0.00     0.313 HD
ENDBRANCH  13  40
ENDBRANCH   7   8
ENDBRANCH   1   7
BRANCH   2  43
HETATM   43  C   UNL     1      10.719 -18.957   7.824  1.00  0.00     0.198 C 
BRANCH  43  44
HETATM   44  O   UNL     1       9.930 -18.540   6.699  1.00  0.00    -0.398 OA
HETATM   45  H   UNL     1      10.519 -18.592   5.922  1.00  0.00     0.209 HD
ENDBRANCH  43  44
ENDBRANCH   2  43
BRANCH   6  46
HETATM   46  O   UNL     1       8.114 -23.265   7.929  1.00  0.00    -0.391 OA
HETATM   47  H   UNL     1       7.850 -23.516   8.839  1.00  0.00     0.210 HD
ENDBRANCH   6  46
BRANCH   5  48
HETATM   48  N   UNL     1      10.320 -24.456   9.396  1.00  0.00     0.128 N 
HETATM   49  H   UNL     1      11.236 -24.649   9.806  1.00  0.00     0.320 HD
HETATM   50  C   UNL     1       9.315 -25.132  10.246  1.00  0.00     0.407 C 
HETATM   51  O   UNL     1       9.536 -24.818  11.626  1.00  0.00    -0.201 OA
BRANCH  50  52
HETATM   52  C   UNL     1       9.430 -26.660  10.046  1.00  0.00     0.175 C 
BRANCH  52  53
HETATM   53  N   UNL     1       8.293 -27.177   9.249  1.00  0.00    -0.228 NA
HETATM   54 CL   UNL     1       6.991 -26.097   9.368  1.00  0.00    -0.022 Cl
HETATM   55  C   UNL     1       8.696 -27.229   7.828  1.00  0.00     0.130 C 
ENDBRANCH  52  53
ENDBRANCH  50  52
ENDBRANCH   5  48
BRANCH   4  56
HETATM   56  O   UNL     1      12.019 -22.475  10.762  1.00  0.00    -0.348 OA
BRANCH  56  57
HETATM   57  C   UNL     1      12.626 -21.279  11.289  1.00  0.00     0.186 C 
HETATM   58  C   UNL     1      12.202 -21.168  12.772  1.00  0.00     0.187 C 
HETATM   59  C   UNL     1      13.093 -20.122  13.484  1.00  0.00     0.303 C 
HETATM   60  C   UNL     1      14.569 -20.616  13.442  1.00  0.00     0.296 C 
HETATM   61  O   UNL     1      14.798 -21.633  12.437  1.00  0.00    -0.349 OA
HETATM   62  C   UNL     1      14.173 -21.369  11.161  1.00  0.00     0.179 C 
BRANCH  58  63
HETATM   63  O   UNL     1      10.805 -20.860  12.884  1.00  0.00    -0.391 OA
HETATM   64  H   UNL     1      10.402 -21.092  12.022  1.00  0.00     0.210 HD
ENDBRANCH  58  63
BRANCH  59  65
HETATM   65  N   UNL     1      12.933 -18.778  12.884  1.00  0.00     0.090 N 
HETATM   66  H   UNL     1      13.868 -18.434  12.655  1.00  0.00     0.313 HD
HETATM   67  H   UNL     1      12.581 -18.154  13.611  1.00  0.00     0.313 HD
ENDBRANCH  59  65
BRANCH  60  68
HETATM   68  O   UNL     1      15.482 -19.513  13.271  1.00  0.00    -0.348 OA
BRANCH  68  69
HETATM   69  C   UNL     1      16.012 -18.896  14.468  1.00  0.00     0.186 C 
HETATM   70  C   UNL     1      17.503 -19.257  14.712  1.00  0.00     0.176 C 
HETATM   71  O   UNL     1      17.903 -18.849  16.037  1.00  0.00    -0.379 OA
HETATM   72  C   UNL     1      17.699 -17.441  16.266  1.00  0.00     0.206 C 
HETATM   73  C   UNL     1      16.202 -17.056  16.147  1.00  0.00     0.278 C 
HETATM   74  C   UNL     1      15.709 -17.393  14.717  1.00  0.00     0.185 C 
BRANCH  70  75
HETATM   75  C   UNL     1      18.498 -18.760  13.633  1.00  0.00     0.198 C 
BRANCH  75  76
HETATM   76  O   UNL     1      17.884 -18.846  12.343  1.00  0.00    -0.398 OA
HETATM   77  H   UNL     1      16.951 -18.586  12.490  1.00  0.00     0.209 HD
ENDBRANCH  75  76
ENDBRANCH  70  75
BRANCH  73  78
HETATM   78  N   UNL     1      15.957 -15.617  16.419  1.00  0.00     0.126 N 
HETATM   79  H   UNL     1      16.320 -15.117  15.605  1.00  0.00     0.320 HD
HETATM   80  C   UNL     1      14.513 -15.299  16.510  1.00  0.00     0.407 C 
HETATM   81  O   UNL     1      14.067 -15.451  17.861  1.00  0.00    -0.201 OA
BRANCH  80  82
HETATM   82  C   UNL     1      14.285 -13.830  16.083  1.00  0.00     0.175 C 
BRANCH  82  83
HETATM   83  N   UNL     1      14.030 -12.958  17.254  1.00  0.00    -0.228 NA
HETATM   84  C   UNL     1      15.169 -12.030  17.405  1.00  0.00     0.130 C 
HETATM   85 CL   UNL     1      12.646 -12.021  16.961  1.00  0.00    -0.022 Cl
ENDBRANCH  82  83
ENDBRANCH  80  82
ENDBRANCH  73  78
BRANCH  74  86
HETATM   86  O   UNL     1      16.339 -16.510  13.776  1.00  0.00    -0.391 OA
HETATM   87  H   UNL     1      16.135 -16.874  12.889  1.00  0.00     0.210 HD
ENDBRANCH  74  86
ENDBRANCH  68  69
ENDBRANCH  60  68
BRANCH  62  88
HETATM   88  C   UNL     1      14.774 -20.124  10.462  1.00  0.00     0.198 C 
BRANCH  88  89
HETATM   89  O   UNL     1      13.729 -19.261  10.003  1.00  0.00    -0.398 OA
HETATM   90  H   UNL     1      14.046 -18.921   9.139  1.00  0.00     0.209 HD
ENDBRANCH  88  89
ENDBRANCH  62  88
ENDBRANCH  56  57
ENDBRANCH   4  56
TORSDOF 36
ENDMDL
MODEL 2
REMARK VINA RESULT:      -6.4      6.747     14.258
REMARK WARNING: 32 MAX_TORS EXCEEDED!!!
REMARK  36 active torsions:
REMARK  status: ('A' for Active; 'I' for Inactive)
REMARK    1  A    between atoms: C_1  and  O_66 
REMARK    2  A    between atoms: C_2  and  O_47 
REMARK    3  A    between atoms: C_4  and  O_40 
REMARK    4  A    between atoms: C_5  and  O_15 
REMARK    5  A    between atoms: C_7  and  C_17 
REMARK    6  A    between atoms: C_8  and  O_9 
REMARK    7  A    between atoms: C_11  and  N_12 
REMARK    8  A    between atoms: N_12  and  C_20 
REMARK    9  A    between atoms: C_14  and  O_15 
REMARK   10  A    between atoms: C_17  and  O_18 
REMARK   11  A    between atoms: C_20  and  O_21 
REMARK   12  A    between atoms: C_20  and  C_23 
REMARK   13  A    between atoms: C_23  and  N_24 
REMARK   14  A    between atoms: C_27  and  C_28 
REMARK   15  A    between atoms: C_28  and  O_29 
REMARK   16  A    between atoms: C_32  and  O_40 
REMARK   17  A    between atoms: C_33  and  N_34 
REMARK   18  A    between atoms: C_37  and  O_38 
REMARK   19  A    between atoms: C_41  and  C_42 
REMARK   20  A    between atoms: C_42  and  O_43 
REMARK   21  A    between atoms: C_46  and  O_47 
REMARK   22  A    between atoms: C_48  and  N_49 
REMARK       I    between atoms: N_49  and  C_51 
REMARK   23  A    between atoms: C_51  and  C_52 
REMARK   24  A    between atoms: C_52  and  N_54 
REMARK   25  A    between atoms: C_56  and  O_57 
REMARK   26  A    between atoms: C_59  and  O_60 
REMARK   27  A    between atoms: C_62  and  N_63 
REMARK   28  A    between atoms: C_65  and  O_66 
REMARK   29  A    between atoms: C_68  and  C_69 
REMARK   30  A    between atoms: C_69  and  O_70 
REMARK   31  A    between atoms: C_73  and  C_74 
REMARK   32  A    between atoms: C_74  and  O_75 
REMARK   33  A    between atoms: C_79  and  O_80 
REMARK   34  A    between atoms: C_82  and  N_83 
REMARK       I    between atoms: N_83  and  C_85 
REMARK   35  A    between atoms: C_85  and  C_87 
REMARK   36  A    between atoms: C_87  and  N_88 
ROOT
HETATM    1  C   UNL     1      15.832 -18.100  13.502  1.00  0.00     0.186 C 
HETATM    2  C   UNL     1      17.029 -19.010  13.122  1.00  0.00     0.179 C 
HETATM    3  O   UNL     1      16.717 -20.387  13.400  1.00  0.00    -0.349 OA
HETATM    4  C   UNL     1      15.652 -20.834  12.538  1.00  0.00     0.297 C 
HETATM    5  C   UNL     1      14.353 -20.024  12.784  1.00  0.00     0.309 C 
HETATM    6  C   UNL     1      14.651 -18.517  12.594  1.00  0.00     0.188 C 
ENDROOT
BRANCH   1   7
HETATM    7  O   UNL     1      15.459 -18.266  14.885  1.00  0.00    -0.348 OA
BRANCH   7   8
HETATM    8  C   UNL     1      15.417 -17.006  15.576  1.00  0.00     0.296 C 
HETATM    9  O   UNL     1      14.852 -16.047  14.671  1.00  0.00    -0.349 OA
HETATM   10  C   UNL     1      14.445 -14.874  15.405  1.00  0.00     0.179 C 
HETATM   11  C   UNL     1      15.506 -14.435  16.461  1.00  0.00     0.186 C 
HETATM   12  C   UNL     1      16.904 -14.986  16.072  1.00  0.00     0.187 C 
HETATM   13  C   UNL     1      16.839 -16.534  15.980  1.00  0.00     0.303 C 
BRANCH  10  14
HETATM   14  C   UNL     1      14.124 -13.768  14.369  1.00  0.00     0.198 C 
BRANCH  14  15
HETATM   15  O   UNL     1      15.222 -13.622  13.460  1.00  0.00    -0.398 OA
HETATM   16  H   UNL     1      15.286 -12.658  13.296  1.00  0.00     0.209 HD
ENDBRANCH  14  15
ENDBRANCH  10  14
BRANCH  11  17
HETATM   17  O   UNL     1      15.506 -13.001  16.614  1.00  0.00    -0.348 OA
BRANCH  17  18
HETATM   18  C   UNL     1      15.642 -12.600  17.991  1.00  0.00     0.296 C 
HETATM   19  C   UNL     1      16.282 -11.189  18.065  1.00  0.00     0.307 C 
HETATM   20  C   UNL     1      15.310 -10.125  17.497  1.00  0.00     0.163 C 
HETATM   21  C   UNL     1      13.966 -10.302  18.141  1.00  0.00     0.057 C 
HETATM   22  C   UNL     1      13.405 -11.688  18.322  1.00  0.00     0.155 C 
HETATM   23  O   UNL     1      14.404 -12.647  18.735  1.00  0.00    -0.351 OA
BRANCH  19  24
HETATM   24  N   UNL     1      16.604 -10.882  19.482  1.00  0.00     0.125 N 
HETATM   25  H   UNL     1      15.724 -10.855  20.004  1.00  0.00     0.320 HD
BRANCH  24  26
HETATM   26  C   UNL     1      17.431 -11.942  20.108  1.00  0.00     0.369 C 
BRANCH  26  27
HETATM   27  O   UNL     1      16.656 -12.652  21.085  1.00  0.00    -0.367 OA
HETATM   28  H   UNL     1      16.824 -12.190  21.933  1.00  0.00     0.212 HD
ENDBRANCH  26  27
BRANCH  26  29
HETATM   29  C   UNL     1      18.674 -11.271  20.739  1.00  0.00     0.171 C 
BRANCH  29  30
HETATM   30  N   UNL     1      18.488  -9.807  20.894  1.00  0.00    -0.228 NA
HETATM   31  C   UNL     1      18.806  -9.424  22.286  1.00  0.00     0.130 C 
HETATM   32 CL   UNL     1      19.596  -8.992  19.900  1.00  0.00    -0.022 Cl
ENDBRANCH  29  30
ENDBRANCH  26  29
ENDBRANCH  24  26
ENDBRANCH  19  24
BRANCH  20  33
HETATM   33  O   UNL     1      15.205 -10.230  16.071  1.00  0.00    -0.393 OA
HETATM   34  H   UNL     1      14.243 -10.266  15.886  1.00  0.00     0.210 HD
ENDBRANCH  20  33
BRANCH  22  35
HETATM   35  C   UNL     1      12.632 -12.145  17.060  1.00  0.00     0.196 C 
BRANCH  35  36
HETATM   36  O   UNL     1      12.635 -11.113  16.067  1.00  0.00    -0.398 OA
HETATM   37  H   UNL     1      11.827 -11.265  15.532  1.00  0.00     0.209 HD
ENDBRANCH  35  36
ENDBRANCH  22  35
ENDBRANCH  17  18
ENDBRANCH  11  17
BRANCH  12  38
HETATM   38  O   UNL     1      17.340 -14.449  14.815  1.00  0.00    -0.391 OA
HETATM   39  H   UNL     1      16.715 -14.802  14.148  1.00  0.00     0.210 HD
ENDBRANCH  12  38
BRANCH  13  40
HETATM   40  N   UNL     1      17.218 -17.137  17.274  1.00  0.00     0.090 N 
HETATM   41  H   UNL     1      16.381 -17.572  17.668  1.00  0.00     0.313 HD
HETATM   42  H   UNL     1      17.885 -17.888  17.084  1.00  0.00     0.313 HD
ENDBRANCH  13  40
ENDBRANCH   7   8
ENDBRANCH   1   7
BRANCH   2  43
HETATM   43  C   UNL     1      18.348 -18.611  13.832  1.00  0.00     0.198 C 
BRANCH  43  44
HETATM   44  O   UNL     1      18.492 -19.206  15.131  1.00  0.00    -0.398 OA
HETATM   45  H   UNL     1      18.917 -20.073  14.985  1.00  0.00     0.209 HD
ENDBRANCH  43  44
ENDBRANCH   2  43
BRANCH   6  46
HETATM   46  O   UNL     1      13.490 -17.713  12.854  1.00  0.00    -0.391 OA
HETATM   47  H   UNL     1      13.297 -17.817  13.810  1.00  0.00     0.210 HD
ENDBRANCH   6  46
BRANCH   5  48
HETATM   48  N   UNL     1      13.292 -20.422  11.824  1.00  0.00     0.128 N 
HETATM   49  H   UNL     1      13.271 -21.441  11.749  1.00  0.00     0.320 HD
HETATM   50  C   UNL     1      11.960 -19.997  12.305  1.00  0.00     0.407 C 
HETATM   51  O   UNL     1      11.573 -20.767  13.450  1.00  0.00    -0.201 OA
BRANCH  50  52
HETATM   52  C   UNL     1      10.925 -20.206  11.178  1.00  0.00     0.175 C 
BRANCH  52  53
HETATM   53  N   UNL     1       9.544 -20.165  11.713  1.00  0.00    -0.228 NA
HETATM   54 CL   UNL     1       8.667 -18.959  10.906  1.00  0.00    -0.022 Cl
HETATM   55  C   UNL     1       8.886 -21.457  11.424  1.00  0.00     0.130 C 
ENDBRANCH  52  53
ENDBRANCH  50  52
ENDBRANCH   5  48
BRANCH   4  56
HETATM   56  O   UNL     1      15.394 -22.216  12.843  1.00  0.00    -0.348 OA
BRANCH  56  57
HETATM   57  C   UNL     1      14.534 -22.330  13.993  1.00  0.00     0.186 C 
HETATM   58  C   UNL     1      13.615 -23.551  13.757  1.00  0.00     0.187 C 
HETATM   59  C   UNL     1      12.925 -23.940  15.086  1.00  0.00     0.303 C 
HETATM   60  C   UNL     1      14.021 -24.355  16.111  1.00  0.00     0.296 C 
HETATM   61  O   UNL     1      15.342 -23.886  15.749  1.00  0.00    -0.349 OA
HETATM   62  C   UNL     1      15.388 -22.521  15.278  1.00  0.00     0.179 C 
BRANCH  58  63
HETATM   63  O   UNL     1      12.670 -23.286  12.710  1.00  0.00    -0.391 OA
HETATM   64  H   UNL     1      12.217 -22.451  12.952  1.00  0.00     0.210 HD
ENDBRANCH  58  63
BRANCH  59  65
HETATM   65  N   UNL     1      12.069 -22.843  15.592  1.00  0.00     0.090 N 
HETATM   66  H   UNL     1      12.420 -22.586  16.517  1.00  0.00     0.313 HD
HETATM   67  H   UNL     1      11.136 -23.225  15.749  1.00  0.00     0.313 HD
ENDBRANCH  59  65
BRANCH  60  68
HETATM   68  O   UNL     1      13.675 -23.929  17.443  1.00  0.00    -0.348 OA
BRANCH  68  69
HETATM   69  C   UNL     1      13.103 -24.919  18.332  1.00  0.00     0.186 C 
HETATM   70  C   UNL     1      13.850 -25.000  19.692  1.00  0.00     0.176 C 
HETATM   71  O   UNL     1      13.423 -26.168  20.424  1.00  0.00    -0.379 OA
HETATM   72  C   UNL     1      12.000 -26.189  20.647  1.00  0.00     0.206 C 
HETATM   73  C   UNL     1      11.213 -26.228  19.312  1.00  0.00     0.278 C 
HETATM   74  C   UNL     1      11.558 -24.959  18.491  1.00  0.00     0.185 C 
BRANCH  70  75
HETATM   75  C   UNL     1      13.792 -23.721  20.565  1.00  0.00     0.198 C 
BRANCH  75  76
HETATM   76  O   UNL     1      13.747 -22.567  19.718  1.00  0.00    -0.398 OA
HETATM   77  H   UNL     1      14.674 -22.429  19.433  1.00  0.00     0.209 HD
ENDBRANCH  75  76
ENDBRANCH  70  75
BRANCH  73  78
HETATM   78  N   UNL     1       9.744 -26.293  19.514  1.00  0.00     0.126 N 
HETATM   79  H   UNL     1       9.475 -27.249  19.272  1.00  0.00     0.320 HD
HETATM   80  C   UNL     1       9.361 -26.085  20.930  1.00  0.00     0.407 C 
HETATM   81  O   UNL     1       9.158 -24.689  21.177  1.00  0.00    -0.201 OA
BRANCH  80  82
HETATM   82  C   UNL     1       8.036 -26.829  21.216  1.00  0.00     0.175 C 
BRANCH  82  83
HETATM   83  N   UNL     1       6.860 -25.995  20.871  1.00  0.00    -0.228 NA
HETATM   84  C   UNL     1       5.960 -26.788  20.008  1.00  0.00     0.130 C 
HETATM   85 CL   UNL     1       6.006 -25.622  22.288  1.00  0.00    -0.022 Cl
ENDBRANCH  82  83
ENDBRANCH  80  82
ENDBRANCH  73  78
BRANCH  74  86
HETATM   86  O   UNL     1      11.011 -23.805  19.147  1.00  0.00    -0.391 OA
HETATM   87  H   UNL     1      10.941 -24.044  20.095  1.00  0.00     0.210 HD
ENDBRANCH  74  86
ENDBRANCH  68  69
ENDBRANCH  60  68
BRANCH  62  88
HETATM   88  C   UNL     1      15.010 -21.508  16.386  1.00  0.00     0.198 C 
BRANCH  88  89
HETATM   89  O   UNL     1      16.002 -20.482  16.480  1.00  0.00    -0.398 OA
HETATM   90  H   UNL     1      15.700 -19.782  15.862  1.00  0.00     0.209 HD
ENDBRANCH  88  89
ENDBRANCH  62  88
ENDBRANCH  56  57
ENDBRANCH   4  56
TORSDOF 36
ENDMDL
MODEL 3
REMARK VINA RESULT:      -6.3      7.831     15.088
REMARK WARNING: 32 MAX_TORS EXCEEDED!!!
REMARK  36 active torsions:
REMARK  status: ('A' for Active; 'I' for Inactive)
REMARK    1  A    between atoms: C_1  and  O_66 
REMARK    2  A    between atoms: C_2  and  O_47 
REMARK    3  A    between atoms: C_4  and  O_40 
REMARK    4  A    between atoms: C_5  and  O_15 
REMARK    5  A    between atoms: C_7  and  C_17 
REMARK    6  A    between atoms: C_8  and  O_9 
REMARK    7  A    between atoms: C_11  and  N_12 
REMARK    8  A    between atoms: N_12  and  C_20 
REMARK    9  A    between atoms: C_14  and  O_15 
REMARK   10  A    between atoms: C_17  and  O_18 
REMARK   11  A    between atoms: C_20  and  O_21 
REMARK   12  A    between atoms: C_20  and  C_23 
REMARK   13  A    between atoms: C_23  and  N_24 
REMARK   14  A    between atoms: C_27  and  C_28 
REMARK   15  A    between atoms: C_28  and  O_29 
REMARK   16  A    between atoms: C_32  and  O_40 
REMARK   17  A    between atoms: C_33  and  N_34 
REMARK   18  A    between atoms: C_37  and  O_38 
REMARK   19  A    between atoms: C_41  and  C_42 
REMARK   20  A    between atoms: C_42  and  O_43 
REMARK   21  A    between atoms: C_46  and  O_47 
REMARK   22  A    between atoms: C_48  and  N_49 
REMARK       I    between atoms: N_49  and  C_51 
REMARK   23  A    between atoms: C_51  and  C_52 
REMARK   24  A    between atoms: C_52  and  N_54 
REMARK   25  A    between atoms: C_56  and  O_57 
REMARK   26  A    between atoms: C_59  and  O_60 
REMARK   27  A    between atoms: C_62  and  N_63 
REMARK   28  A    between atoms: C_65  and  O_66 
REMARK   29  A    between atoms: C_68  and  C_69 
REMARK   30  A    between atoms: C_69  and  O_70 
REMARK   31  A    between atoms: C_73  and  C_74 
REMARK   32  A    between atoms: C_74  and  O_75 
REMARK   33  A    between atoms: C_79  and  O_80 
REMARK   34  A    between atoms: C_82  and  N_83 
REMARK       I    between atoms: N_83  and  C_85 
REMARK   35  A    between atoms: C_85  and  C_87 
REMARK   36  A    between atoms: C_87  and  N_88 
ROOT
HETATM    1  C   UNL     1      15.785 -19.279  15.373  1.00  0.00     0.186 C 
HETATM    2  C   UNL     1      14.826 -20.036  14.417  1.00  0.00     0.179 C 
HETATM    3  O   UNL     1      15.532 -20.468  13.241  1.00  0.00    -0.349 OA
HETATM    4  C   UNL     1      16.522 -21.454  13.594  1.00  0.00     0.297 C 
HETATM    5  C   UNL     1      17.582 -20.863  14.559  1.00  0.00     0.309 C 
HETATM    6  C   UNL     1      16.870 -20.291  15.809  1.00  0.00     0.188 C 
ENDROOT
BRANCH   1   7
HETATM    7  O   UNL     1      16.409 -18.157  14.716  1.00  0.00    -0.348 OA
BRANCH   7   8
HETATM    8  C   UNL     1      16.154 -16.926  15.414  1.00  0.00     0.296 C 
HETATM    9  O   UNL     1      15.412 -16.081  14.523  1.00  0.00    -0.349 OA
HETATM   10  C   UNL     1      14.815 -15.001  15.270  1.00  0.00     0.179 C 
HETATM   11  C   UNL     1      15.799 -14.382  16.310  1.00  0.00     0.186 C 
HETATM   12  C   UNL     1      17.266 -14.674  15.897  1.00  0.00     0.187 C 
HETATM   13  C   UNL     1      17.476 -16.208  15.798  1.00  0.00     0.303 C 
BRANCH  10  14
HETATM   14  C   UNL     1      14.285 -13.968  14.245  1.00  0.00     0.198 C 
BRANCH  14  15
HETATM   15  O   UNL     1      15.338 -13.589  13.349  1.00  0.00    -0.398 OA
HETATM   16  H   UNL     1      16.162 -13.706  13.866  1.00  0.00     0.209 HD
ENDBRANCH  14  15
ENDBRANCH  10  14
BRANCH  11  17
HETATM   17  O   UNL     1      15.545 -12.972  16.471  1.00  0.00    -0.348 OA
BRANCH  17  18
HETATM   18  C   UNL     1      15.655 -12.551  17.844  1.00  0.00     0.296 C 
HETATM   19  C   UNL     1      16.086 -11.062  17.904  1.00  0.00     0.307 C 
HETATM   20  C   UNL     1      14.957 -10.152  17.360  1.00  0.00     0.163 C 
HETATM   21  C   UNL     1      13.668 -10.519  18.037  1.00  0.00     0.057 C 
HETATM   22  C   UNL     1      13.319 -11.972  18.231  1.00  0.00     0.155 C 
HETATM   23  O   UNL     1      14.455 -12.774  18.619  1.00  0.00    -0.351 OA
BRANCH  19  24
HETATM   24  N   UNL     1      16.394 -10.708  19.313  1.00  0.00     0.125 N 
HETATM   25  H   UNL     1      17.184 -11.284  19.615  1.00  0.00     0.320 HD
BRANCH  24  26
HETATM   26  C   UNL     1      16.827  -9.296  19.450  1.00  0.00     0.369 C 
BRANCH  26  27
HETATM   27  O   UNL     1      18.229  -9.186  19.165  1.00  0.00    -0.367 OA
HETATM   28  H   UNL     1      18.654  -9.002  20.030  1.00  0.00     0.212 HD
ENDBRANCH  26  27
BRANCH  26  29
HETATM   29  C   UNL     1      16.497  -8.831  20.888  1.00  0.00     0.171 C 
BRANCH  29  30
HETATM   30  N   UNL     1      15.707  -7.575  20.891  1.00  0.00    -0.228 NA
HETATM   31  C   UNL     1      16.284  -6.639  19.903  1.00  0.00     0.130 C 
HETATM   32 CL   UNL     1      14.123  -7.905  20.381  1.00  0.00    -0.022 Cl
ENDBRANCH  29  30
ENDBRANCH  26  29
ENDBRANCH  24  26
ENDBRANCH  19  24
BRANCH  20  33
HETATM   33  O   UNL     1      14.834 -10.275  15.937  1.00  0.00    -0.393 OA
HETATM   34  H   UNL     1      15.273 -11.123  15.714  1.00  0.00     0.210 HD
ENDBRANCH  20  33
BRANCH  22  35
HETATM   35  C   UNL     1      12.590 -12.539  16.988  1.00  0.00     0.196 C 
BRANCH  35  36
HETATM   36  O   UNL     1      12.115 -13.866  17.245  1.00  0.00    -0.398 OA
HETATM   37  H   UNL     1      12.830 -14.462  16.935  1.00  0.00     0.209 HD
ENDBRANCH  35  36
ENDBRANCH  22  35
ENDBRANCH  17  18
ENDBRANCH  11  17
BRANCH  12  38
HETATM   38  O   UNL     1      17.578 -14.066  14.635  1.00  0.00    -0.391 OA
HETATM   39  H   UNL     1      18.480 -13.698  14.737  1.00  0.00     0.210 HD
ENDBRANCH  12  38
BRANCH  13  40
HETATM   40  N   UNL     1      17.978 -16.738  17.082  1.00  0.00     0.090 N 
HETATM   41  H   UNL     1      18.757 -16.146  17.377  1.00  0.00     0.313 HD
HETATM   42  H   UNL     1      17.236 -16.626  17.777  1.00  0.00     0.313 HD
ENDBRANCH  13  40
ENDBRANCH   7   8
ENDBRANCH   1   7
BRANCH   2  43
HETATM   43  C   UNL     1      13.582 -19.203  14.015  1.00  0.00     0.198 C 
BRANCH  43  44
HETATM   44  O   UNL     1      13.888 -18.140  13.100  1.00  0.00    -0.398 OA
HETATM   45  H   UNL     1      13.847 -18.532  12.206  1.00  0.00     0.209 HD
ENDBRANCH  43  44
ENDBRANCH   2  43
BRANCH   6  46
HETATM   46  O   UNL     1      17.802 -19.689  16.719  1.00  0.00    -0.391 OA
HETATM   47  H   UNL     1      17.678 -20.147  17.577  1.00  0.00     0.210 HD
ENDBRANCH   6  46
BRANCH   5  48
HETATM   48  N   UNL     1      18.539 -21.911  14.998  1.00  0.00     0.128 N 
HETATM   49  H   UNL     1      18.420 -22.742  14.415  1.00  0.00     0.320 HD
HETATM   50  C   UNL     1      19.936 -21.456  14.820  1.00  0.00     0.407 C 
HETATM   51  O   UNL     1      20.261 -21.377  13.427  1.00  0.00    -0.201 OA
BRANCH  50  52
HETATM   52  C   UNL     1      20.886 -22.460  15.508  1.00  0.00     0.175 C 
BRANCH  52  53
HETATM   53  N   UNL     1      21.581 -21.831  16.655  1.00  0.00    -0.228 NA
HETATM   54 CL   UNL     1      22.592 -22.975  17.392  1.00  0.00    -0.022 Cl
HETATM   55  C   UNL     1      22.443 -20.743  16.147  1.00  0.00     0.130 C 
ENDBRANCH  52  53
ENDBRANCH  50  52
ENDBRANCH   5  48
BRANCH   4  56
HETATM   56  O   UNL     1      17.182 -21.864  12.384  1.00  0.00    -0.348 OA
BRANCH  56  57
HETATM   57  C   UNL     1      16.349 -21.601  11.239  1.00  0.00     0.186 C 
HETATM   58  C   UNL     1      17.001 -20.435  10.458  1.00  0.00     0.187 C 
HETATM   59  C   UNL     1      16.367 -20.342   9.050  1.00  0.00     0.303 C 
HETATM   60  C   UNL     1      16.669 -21.661   8.281  1.00  0.00     0.296 C 
HETATM   61  O   UNL     1      17.053 -22.751   9.155  1.00  0.00    -0.349 OA
HETATM   62  C   UNL     1      16.252 -22.874  10.351  1.00  0.00     0.179 C 
BRANCH  58  63
HETATM   63  O   UNL     1      16.889 -19.205  11.188  1.00  0.00    -0.391 OA
HETATM   64  H   UNL     1      17.806 -18.908  11.369  1.00  0.00     0.210 HD
ENDBRANCH  58  63
BRANCH  59  65
HETATM   65  N   UNL     1      14.916 -20.056   9.128  1.00  0.00     0.090 N 
HETATM   66  H   UNL     1      14.665 -20.030  10.119  1.00  0.00     0.313 HD
HETATM   67  H   UNL     1      14.421 -20.859   8.740  1.00  0.00     0.313 HD
ENDBRANCH  59  65
BRANCH  60  68
HETATM   68  O   UNL     1      15.557 -22.043   7.447  1.00  0.00    -0.348 OA
BRANCH  68  69
HETATM   69  C   UNL     1      15.788 -22.107   6.018  1.00  0.00     0.186 C 
HETATM   70  C   UNL     1      14.788 -23.052   5.296  1.00  0.00     0.176 C 
HETATM   71  O   UNL     1      15.221 -23.291   3.941  1.00  0.00    -0.379 OA
HETATM   72  C   UNL     1      15.372 -22.073   3.187  1.00  0.00     0.206 C 
HETATM   73  C   UNL     1      16.449 -21.147   3.808  1.00  0.00     0.278 C 
HETATM   74  C   UNL     1      16.020 -20.776   5.250  1.00  0.00     0.185 C 
BRANCH  70  75
HETATM   75  C   UNL     1      13.300 -22.624   5.357  1.00  0.00     0.198 C 
BRANCH  75  76
HETATM   76  O   UNL     1      13.076 -21.844   6.536  1.00  0.00    -0.398 OA
HETATM   77  H   UNL     1      13.808 -22.085   7.141  1.00  0.00     0.209 HD
ENDBRANCH  75  76
ENDBRANCH  70  75
BRANCH  73  78
HETATM   78  N   UNL     1      16.655 -19.902   3.027  1.00  0.00     0.126 N 
HETATM   79  H   UNL     1      17.600 -19.971   2.643  1.00  0.00     0.320 HD
HETATM   80  C   UNL     1      15.730 -19.801   1.874  1.00  0.00     0.407 C 
HETATM   81  O   UNL     1      14.524 -19.143   2.276  1.00  0.00    -0.201 OA
BRANCH  80  82
HETATM   82  C   UNL     1      16.395 -18.964   0.756  1.00  0.00     0.175 C 
BRANCH  82  83
HETATM   83  N   UNL     1      17.676 -19.564   0.318  1.00  0.00    -0.228 NA
HETATM   84  C   UNL     1      17.392 -20.563  -0.733  1.00  0.00     0.130 C 
HETATM   85 CL   UNL     1      18.649 -18.360  -0.375  1.00  0.00    -0.022 Cl
ENDBRANCH  82  83
ENDBRANCH  80  82
ENDBRANCH  73  78
BRANCH  74  86
HETATM   86  O   UNL     1      14.863 -19.926   5.199  1.00  0.00    -0.391 OA
HETATM   87  H   UNL     1      14.208 -20.398   4.643  1.00  0.00     0.210 HD
ENDBRANCH  74  86
ENDBRANCH  68  69
ENDBRANCH  60  68
BRANCH  62  88
HETATM   88  C   UNL     1      14.784 -23.254  10.035  1.00  0.00     0.198 C 
BRANCH  88  89
HETATM   89  O   UNL     1      13.886 -22.366  10.707  1.00  0.00    -0.398 OA
HETATM   90  H   UNL     1      13.722 -21.642  10.067  1.00  0.00     0.209 HD
ENDBRANCH  88  89
ENDBRANCH  62  88
ENDBRANCH  56  57
ENDBRANCH   4  56
TORSDOF 36
ENDMDL
MODEL 4
REMARK VINA RESULT:      -6.3      3.399     14.688
REMARK WARNING: 32 MAX_TORS EXCEEDED!!!
REMARK  36 active torsions:
REMARK  status: ('A' for Active; 'I' for Inactive)
REMARK    1  A    between atoms: C_1  and  O_66 
REMARK    2  A    between atoms: C_2  and  O_47 
REMARK    3  A    between atoms: C_4  and  O_40 
REMARK    4  A    between atoms: C_5  and  O_15 
REMARK    5  A    between atoms: C_7  and  C_17 
REMARK    6  A    between atoms: C_8  and  O_9 
REMARK    7  A    between atoms: C_11  and  N_12 
REMARK    8  A    between atoms: N_12  and  C_20 
REMARK    9  A    between atoms: C_14  and  O_15 
REMARK   10  A    between atoms: C_17  and  O_18 
REMARK   11  A    between atoms: C_20  and  O_21 
REMARK   12  A    between atoms: C_20  and  C_23 
REMARK   13  A    between atoms: C_23  and  N_24 
REMARK   14  A    between atoms: C_27  and  C_28 
REMARK   15  A    between atoms: C_28  and  O_29 
REMARK   16  A    between atoms: C_32  and  O_40 
REMARK   17  A    between atoms: C_33  and  N_34 
REMARK   18  A    between atoms: C_37  and  O_38 
REMARK   19  A    between atoms: C_41  and  C_42 
REMARK   20  A    between atoms: C_42  and  O_43 
REMARK   21  A    between atoms: C_46  and  O_47 
REMARK   22  A    between atoms: C_48  and  N_49 
REMARK       I    between atoms: N_49  and  C_51 
REMARK   23  A    between atoms: C_51  and  C_52 
REMARK   24  A    between atoms: C_52  and  N_54 
REMARK   25  A    between atoms: C_56  and  O_57 
REMARK   26  A    between atoms: C_59  and  O_60 
REMARK   27  A    between atoms: C_62  and  N_63 
REMARK   28  A    between atoms: C_65  and  O_66 
REMARK   29  A    between atoms: C_68  and  C_69 
REMARK   30  A    between atoms: C_69  and  O_70 
REMARK   31  A    between atoms: C_73  and  C_74 
REMARK   32  A    between atoms: C_74  and  O_75 
REMARK   33  A    between atoms: C_79  and  O_80 
REMARK   34  A    between atoms: C_82  and  N_83 
REMARK       I    between atoms: N_83  and  C_85 
REMARK   35  A    between atoms: C_85  and  C_87 
REMARK   36  A    between atoms: C_87  and  N_88 
ROOT
HETATM    1  C   UNL     1      14.816 -19.306  12.412  1.00  0.00     0.186 C 
HETATM    2  C   UNL     1      13.543 -20.180  12.271  1.00  0.00     0.179 C 
HETATM    3  O   UNL     1      12.840 -19.847  11.061  1.00  0.00    -0.349 OA
HETATM    4  C   UNL     1      13.637 -20.203   9.914  1.00  0.00     0.297 C 
HETATM    5  C   UNL     1      14.970 -19.411   9.889  1.00  0.00     0.309 C 
HETATM    6  C   UNL     1      15.731 -19.654  11.215  1.00  0.00     0.188 C 
ENDROOT
BRANCH   1   7
HETATM    7  O   UNL     1      14.498 -17.900  12.383  1.00  0.00    -0.348 OA
BRANCH   7   8
HETATM    8  C   UNL     1      14.821 -17.258  13.628  1.00  0.00     0.296 C 
HETATM    9  O   UNL     1      13.923 -16.150  13.777  1.00  0.00    -0.349 OA
HETATM   10  C   UNL     1      13.942 -15.695  15.145  1.00  0.00     0.179 C 
HETATM   11  C   UNL     1      15.387 -15.625  15.728  1.00  0.00     0.186 C 
HETATM   12  C   UNL     1      16.421 -15.504  14.577  1.00  0.00     0.187 C 
HETATM   13  C   UNL     1      16.278 -16.723  13.628  1.00  0.00     0.303 C 
BRANCH  10  14
HETATM   14  C   UNL     1      13.201 -14.336  15.192  1.00  0.00     0.198 C 
BRANCH  14  15
HETATM   15  O   UNL     1      13.997 -13.327  14.558  1.00  0.00    -0.398 OA
HETATM   16  H   UNL     1      14.739 -13.815  14.143  1.00  0.00     0.209 HD
ENDBRANCH  14  15
ENDBRANCH  10  14
BRANCH  11  17
HETATM   17  O   UNL     1      15.498 -14.547  16.680  1.00  0.00    -0.348 OA
BRANCH  17  18
HETATM   18  C   UNL     1      16.381 -14.871  17.770  1.00  0.00     0.296 C 
HETATM   19  C   UNL     1      17.627 -13.948  17.729  1.00  0.00     0.307 C 
HETATM   20  C   UNL     1      17.226 -12.485  18.041  1.00  0.00     0.163 C 
HETATM   21  C   UNL     1      16.401 -12.465  19.295  1.00  0.00     0.057 C 
HETATM   22  C   UNL     1      15.333 -13.508  19.499  1.00  0.00     0.155 C 
HETATM   23  O   UNL     1      15.745 -14.823  19.068  1.00  0.00    -0.351 OA
BRANCH  19  24
HETATM   24  N   UNL     1      18.616 -14.431  18.727  1.00  0.00     0.125 N 
HETATM   25  H   UNL     1      18.166 -15.160  19.286  1.00  0.00     0.320 HD
BRANCH  24  26
HETATM   26  C   UNL     1      19.794 -15.061  18.083  1.00  0.00     0.369 C 
BRANCH  26  27
HETATM   27  O   UNL     1      20.963 -14.264  18.319  1.00  0.00    -0.367 OA
HETATM   28  H   UNL     1      21.577 -14.484  17.587  1.00  0.00     0.212 HD
ENDBRANCH  26  27
BRANCH  26  29
HETATM   29  C   UNL     1      19.495 -15.206  16.572  1.00  0.00     0.171 C 
BRANCH  29  30
HETATM   30  N   UNL     1      19.350 -16.628  16.175  1.00  0.00    -0.228 NA
HETATM   31  C   UNL     1      20.589 -17.070  15.500  1.00  0.00     0.130 C 
HETATM   32 CL   UNL     1      19.186 -17.587  17.566  1.00  0.00    -0.022 Cl
ENDBRANCH  29  30
ENDBRANCH  26  29
ENDBRANCH  24  26
ENDBRANCH  19  24
BRANCH  20  33
HETATM   33  O   UNL     1      16.501 -11.904  16.950  1.00  0.00    -0.393 OA
HETATM   34  H   UNL     1      17.170 -11.747  16.251  1.00  0.00     0.210 HD
ENDBRANCH  20  33
BRANCH  22  35
HETATM   35  C   UNL     1      13.995 -13.066  18.856  1.00  0.00     0.196 C 
BRANCH  35  36
HETATM   36  O   UNL     1      13.968 -11.646  18.673  1.00  0.00    -0.398 OA
HETATM   37  H   UNL     1      14.694 -11.298  19.234  1.00  0.00     0.209 HD
ENDBRANCH  35  36
ENDBRANCH  22  35
ENDBRANCH  17  18
ENDBRANCH  11  17
BRANCH  12  38
HETATM   38  O   UNL     1      16.227 -14.292  13.833  1.00  0.00    -0.391 OA
HETATM   39  H   UNL     1      16.991 -13.721  14.057  1.00  0.00     0.210 HD
ENDBRANCH  12  38
BRANCH  13  40
HETATM   40  N   UNL     1      17.206 -17.798  14.035  1.00  0.00     0.090 N 
HETATM   41  H   UNL     1      18.143 -17.530  13.727  1.00  0.00     0.313 HD
HETATM   42  H   UNL     1      17.223 -17.824  15.057  1.00  0.00     0.313 HD
ENDBRANCH  13  40
ENDBRANCH   7   8
ENDBRANCH   1   7
BRANCH   2  43
HETATM   43  C   UNL     1      12.589 -20.070  13.487  1.00  0.00     0.198 C 
BRANCH  43  44
HETATM   44  O   UNL     1      11.240 -19.742  13.118  1.00  0.00    -0.398 OA
HETATM   45  H   UNL     1      11.309 -19.131  12.359  1.00  0.00     0.209 HD
ENDBRANCH  43  44
ENDBRANCH   2  43
BRANCH   6  46
HETATM   46  O   UNL     1      16.955 -18.908  11.265  1.00  0.00    -0.391 OA
HETATM   47  H   UNL     1      16.717 -17.981  11.051  1.00  0.00     0.210 HD
ENDBRANCH   6  46
BRANCH   5  48
HETATM   48  N   UNL     1      15.828 -19.857   8.761  1.00  0.00     0.128 N 
HETATM   49  H   UNL     1      16.761 -19.453   8.868  1.00  0.00     0.320 HD
HETATM   50  C   UNL     1      15.990 -21.327   8.773  1.00  0.00     0.407 C 
HETATM   51  O   UNL     1      16.797 -21.732   9.886  1.00  0.00    -0.201 OA
BRANCH  50  52
HETATM   52  C   UNL     1      16.674 -21.770   7.461  1.00  0.00     0.175 C 
BRANCH  52  53
HETATM   53  N   UNL     1      15.669 -22.092   6.422  1.00  0.00    -0.228 NA
HETATM   54 CL   UNL     1      15.592 -20.819   5.305  1.00  0.00    -0.022 Cl
HETATM   55  C   UNL     1      16.113 -23.296   5.688  1.00  0.00     0.130 C 
ENDBRANCH  52  53
ENDBRANCH  50  52
ENDBRANCH   5  48
BRANCH   4  56
HETATM   56  O   UNL     1      12.883 -19.867   8.736  1.00  0.00    -0.348 OA
BRANCH  56  57
HETATM   57  C   UNL     1      11.481 -20.135   8.938  1.00  0.00     0.186 C 
HETATM   58  C   UNL     1      10.717 -19.473   7.768  1.00  0.00     0.187 C 
HETATM   59  C   UNL     1       9.268 -20.016   7.728  1.00  0.00     0.303 C 
HETATM   60  C   UNL     1       9.321 -21.549   7.461  1.00  0.00     0.296 C 
HETATM   61  O   UNL     1      10.618 -22.129   7.739  1.00  0.00    -0.349 OA
HETATM   62  C   UNL     1      11.232 -21.669   8.963  1.00  0.00     0.179 C 
BRANCH  58  63
HETATM   63  O   UNL     1      10.759 -18.043   7.873  1.00  0.00    -0.391 OA
HETATM   64  H   UNL     1      10.057 -17.792   8.509  1.00  0.00     0.210 HD
ENDBRANCH  58  63
BRANCH  59  65
HETATM   65  N   UNL     1       8.533 -19.686   8.970  1.00  0.00     0.090 N 
HETATM   66  H   UNL     1       7.798 -19.020   8.720  1.00  0.00     0.313 HD
HETATM   67  H   UNL     1       9.170 -19.175   9.581  1.00  0.00     0.313 HD
ENDBRANCH  59  65
BRANCH  60  68
HETATM   68  O   UNL     1       8.286 -22.239   8.189  1.00  0.00    -0.348 OA
BRANCH  68  69
HETATM   69  C   UNL     1       7.007 -22.407   7.531  1.00  0.00     0.186 C 
HETATM   70  C   UNL     1       6.565 -23.895   7.461  1.00  0.00     0.176 C 
HETATM   71  O   UNL     1       5.438 -24.037   6.571  1.00  0.00    -0.379 OA
HETATM   72  C   UNL     1       4.321 -23.215   6.960  1.00  0.00     0.206 C 
HETATM   73  C   UNL     1       4.684 -21.708   6.931  1.00  0.00     0.278 C 
HETATM   74  C   UNL     1       5.845 -21.453   7.925  1.00  0.00     0.185 C 
BRANCH  70  75
HETATM   75  C   UNL     1       6.310 -24.583   8.826  1.00  0.00     0.198 C 
BRANCH  75  76
HETATM   76  O   UNL     1       7.294 -24.147   9.770  1.00  0.00    -0.398 OA
HETATM   77  H   UNL     1       7.741 -24.968  10.064  1.00  0.00     0.209 HD
ENDBRANCH  75  76
ENDBRANCH  70  75
BRANCH  73  78
HETATM   78  N   UNL     1       3.538 -20.835   7.288  1.00  0.00     0.126 N 
HETATM   79  H   UNL     1       3.308 -20.321   6.435  1.00  0.00     0.320 HD
HETATM   80  C   UNL     1       2.332 -21.612   7.658  1.00  0.00     0.407 C 
HETATM   81  O   UNL     1       2.342 -21.880   9.064  1.00  0.00    -0.201 OA
BRANCH  80  82
HETATM   82  C   UNL     1       1.068 -20.785   7.327  1.00  0.00     0.175 C 
BRANCH  82  83
HETATM   83  N   UNL     1       0.177 -21.509   6.391  1.00  0.00    -0.228 NA
HETATM   84  C   UNL     1      -0.815 -22.268   7.181  1.00  0.00     0.130 C 
HETATM   85 CL   UNL     1      -0.676 -20.385   5.450  1.00  0.00    -0.022 Cl
ENDBRANCH  82  83
ENDBRANCH  80  82
ENDBRANCH  73  78
BRANCH  74  86
HETATM   86  O   UNL     1       5.372 -21.638   9.268  1.00  0.00    -0.391 OA
HETATM   87  H   UNL     1       4.808 -22.440   9.245  1.00  0.00     0.210 HD
ENDBRANCH  74  86
ENDBRANCH  68  69
ENDBRANCH  60  68
BRANCH  62  88
HETATM   88  C   UNL     1      10.438 -22.111  10.218  1.00  0.00     0.198 C 
BRANCH  88  89
HETATM   89  O   UNL     1      10.081 -20.972  11.006  1.00  0.00    -0.398 OA
HETATM   90  H   UNL     1      10.283 -21.232  11.929  1.00  0.00     0.209 HD
ENDBRANCH  88  89
ENDBRANCH  62  88
ENDBRANCH  56  57
ENDBRANCH   4  56
TORSDOF 36
ENDMDL
MODEL 5
REMARK VINA RESULT:      -6.2      2.504      3.381
REMARK WARNING: 32 MAX_TORS EXCEEDED!!!
REMARK  36 active torsions:
REMARK  status: ('A' for Active; 'I' for Inactive)
REMARK    1  A    between atoms: C_1  and  O_66 
REMARK    2  A    between atoms: C_2  and  O_47 
REMARK    3  A    between atoms: C_4  and  O_40 
REMARK    4  A    between atoms: C_5  and  O_15 
REMARK    5  A    between atoms: C_7  and  C_17 
REMARK    6  A    between atoms: C_8  and  O_9 
REMARK    7  A    between atoms: C_11  and  N_12 
REMARK    8  A    between atoms: N_12  and  C_20 
REMARK    9  A    between atoms: C_14  and  O_15 
REMARK   10  A    between atoms: C_17  and  O_18 
REMARK   11  A    between atoms: C_20  and  O_21 
REMARK   12  A    between atoms: C_20  and  C_23 
REMARK   13  A    between atoms: C_23  and  N_24 
REMARK   14  A    between atoms: C_27  and  C_28 
REMARK   15  A    between atoms: C_28  and  O_29 
REMARK   16  A    between atoms: C_32  and  O_40 
REMARK   17  A    between atoms: C_33  and  N_34 
REMARK   18  A    between atoms: C_37  and  O_38 
REMARK   19  A    between atoms: C_41  and  C_42 
REMARK   20  A    between atoms: C_42  and  O_43 
REMARK   21  A    between atoms: C_46  and  O_47 
REMARK   22  A    between atoms: C_48  and  N_49 
REMARK       I    between atoms: N_49  and  C_51 
REMARK   23  A    between atoms: C_51  and  C_52 
REMARK   24  A    between atoms: C_52  and  N_54 
REMARK   25  A    between atoms: C_56  and  O_57 
REMARK   26  A    between atoms: C_59  and  O_60 
REMARK   27  A    between atoms: C_62  and  N_63 
REMARK   28  A    between atoms: C_65  and  O_66 
REMARK   29  A    between atoms: C_68  and  C_69 
REMARK   30  A    between atoms: C_69  and  O_70 
REMARK   31  A    between atoms: C_73  and  C_74 
REMARK   32  A    between atoms: C_74  and  O_75 
REMARK   33  A    between atoms: C_79  and  O_80 
REMARK   34  A    between atoms: C_82  and  N_83 
REMARK       I    between atoms: N_83  and  C_85 
REMARK   35  A    between atoms: C_85  and  C_87 
REMARK   36  A    between atoms: C_87  and  N_88 
ROOT
HETATM    1  C   UNL     1       9.547 -19.719   9.255  1.00  0.00     0.186 C 
HETATM    2  C   UNL     1       9.891 -19.928  10.753  1.00  0.00     0.179 C 
HETATM    3  O   UNL     1      10.741 -21.077  10.914  1.00  0.00    -0.349 OA
HETATM    4  C   UNL     1      12.019 -20.835  10.293  1.00  0.00     0.297 C 
HETATM    5  C   UNL     1      11.867 -20.602   8.768  1.00  0.00     0.309 C 
HETATM    6  C   UNL     1      10.881 -19.433   8.527  1.00  0.00     0.188 C 
ENDROOT
BRANCH   1   7
HETATM    7  O   UNL     1       8.928 -20.891   8.686  1.00  0.00    -0.348 OA
BRANCH   7   8
HETATM    8  C   UNL     1       7.529 -20.679   8.430  1.00  0.00     0.296 C 
HETATM    9  O   UNL     1       6.843 -21.876   8.823  1.00  0.00    -0.349 OA
HETATM   10  C   UNL     1       5.431 -21.605   8.939  1.00  0.00     0.179 C 
HETATM   11  C   UNL     1       4.893 -20.736   7.761  1.00  0.00     0.186 C 
HETATM   12  C   UNL     1       5.829 -20.869   6.529  1.00  0.00     0.187 C 
HETATM   13  C   UNL     1       7.262 -20.423   6.922  1.00  0.00     0.303 C 
BRANCH  10  14
HETATM   14  C   UNL     1       4.708 -22.968   9.069  1.00  0.00     0.198 C 
BRANCH  14  15
HETATM   15  O   UNL     1       5.441 -23.976   8.362  1.00  0.00    -0.398 OA
HETATM   16  H   UNL     1       4.781 -24.407   7.780  1.00  0.00     0.209 HD
ENDBRANCH  14  15
ENDBRANCH  10  14
BRANCH  11  17
HETATM   17  O   UNL     1       3.529 -21.088   7.452  1.00  0.00    -0.348 OA
BRANCH  17  18
HETATM   18  C   UNL     1       2.856 -20.058   6.704  1.00  0.00     0.296 C 
HETATM   19  C   UNL     1       3.022 -20.319   5.185  1.00  0.00     0.307 C 
HETATM   20  C   UNL     1       2.253 -21.597   4.769  1.00  0.00     0.163 C 
HETATM   21  C   UNL     1       0.851 -21.515   5.300  1.00  0.00     0.057 C 
HETATM   22  C   UNL     1       0.616 -21.021   6.703  1.00  0.00     0.155 C 
HETATM   23  O   UNL     1       1.461 -19.903   7.053  1.00  0.00    -0.351 OA
BRANCH  19  24
HETATM   24  N   UNL     1       2.505 -19.145   4.437  1.00  0.00     0.125 N 
HETATM   25  H   UNL     1       3.034 -18.323   4.738  1.00  0.00     0.320 HD
BRANCH  24  26
HETATM   26  C   UNL     1       2.724 -19.275   2.976  1.00  0.00     0.369 C 
BRANCH  26  27
HETATM   27  O   UNL     1       3.819 -18.442   2.571  1.00  0.00    -0.367 OA
HETATM   28  H   UNL     1       4.359 -18.313   3.380  1.00  0.00     0.212 HD
ENDBRANCH  26  27
BRANCH  26  29
HETATM   29  C   UNL     1       1.410 -18.883   2.257  1.00  0.00     0.171 C 
BRANCH  29  30
HETATM   30  N   UNL     1       0.952 -19.948   1.332  1.00  0.00    -0.228 NA
HETATM   31  C   UNL     1       2.023 -20.956   1.186  1.00  0.00     0.130 C 
HETATM   32 CL   UNL     1      -0.380 -20.749   2.014  1.00  0.00    -0.022 Cl
ENDBRANCH  29  30
ENDBRANCH  26  29
ENDBRANCH  24  26
ENDBRANCH  19  24
BRANCH  20  33
HETATM   33  O   UNL     1       2.908 -22.776   5.255  1.00  0.00    -0.393 OA
HETATM   34  H   UNL     1       2.347 -23.523   4.958  1.00  0.00     0.210 HD
ENDBRANCH  20  33
BRANCH  22  35
HETATM   35  C   UNL     1       0.715 -22.181   7.725  1.00  0.00     0.196 C 
BRANCH  35  36
HETATM   36  O   UNL     1       1.332 -21.734   8.937  1.00  0.00    -0.398 OA
HETATM   37  H   UNL     1       2.287 -21.929   8.829  1.00  0.00     0.209 HD
ENDBRANCH  35  36
ENDBRANCH  22  35
ENDBRANCH  17  18
ENDBRANCH  11  17
BRANCH  12  38
HETATM   38  O   UNL     1       5.864 -22.222   6.051  1.00  0.00    -0.391 OA
HETATM   39  H   UNL     1       5.103 -22.303   5.438  1.00  0.00     0.210 HD
ENDBRANCH  12  38
BRANCH  13  40
HETATM   40  N   UNL     1       7.450 -18.990   6.618  1.00  0.00     0.090 N 
HETATM   41  H   UNL     1       8.213 -18.647   7.205  1.00  0.00     0.313 HD
HETATM   42  H   UNL     1       7.761 -18.915   5.647  1.00  0.00     0.313 HD
ENDBRANCH  13  40
ENDBRANCH   7   8
ENDBRANCH   1   7
BRANCH   2  43
HETATM   43  C   UNL     1       8.637 -20.065  11.654  1.00  0.00     0.198 C 
BRANCH  43  44
HETATM   44  O   UNL     1       8.380 -18.895  12.445  1.00  0.00    -0.398 OA
HETATM   45  H   UNL     1       8.692 -18.136  11.914  1.00  0.00     0.209 HD
ENDBRANCH  43  44
ENDBRANCH   2  43
BRANCH   6  46
HETATM   46  O   UNL     1      10.667 -19.203   7.127  1.00  0.00    -0.391 OA
HETATM   47  H   UNL     1      10.018 -19.877   6.837  1.00  0.00     0.210 HD
ENDBRANCH   6  46
BRANCH   5  48
HETATM   48  N   UNL     1      13.173 -20.254   8.153  1.00  0.00     0.128 N 
HETATM   49  H   UNL     1      13.893 -20.234   8.880  1.00  0.00     0.320 HD
HETATM   50  C   UNL     1      13.582 -21.279   7.169  1.00  0.00     0.407 C 
HETATM   51  O   UNL     1      13.928 -22.500   7.834  1.00  0.00    -0.201 OA
BRANCH  50  52
HETATM   52  C   UNL     1      14.808 -20.764   6.382  1.00  0.00     0.175 C 
BRANCH  52  53
HETATM   53  N   UNL     1      15.463 -21.867   5.641  1.00  0.00    -0.228 NA
HETATM   54 CL   UNL     1      14.584 -22.191   4.228  1.00  0.00    -0.022 Cl
HETATM   55  C   UNL     1      16.813 -21.425   5.229  1.00  0.00     0.130 C 
ENDBRANCH  52  53
ENDBRANCH  50  52
ENDBRANCH   5  48
BRANCH   4  56
HETATM   56  O   UNL     1      12.834 -22.002  10.499  1.00  0.00    -0.348 OA
BRANCH  56  57
HETATM   57  C   UNL     1      13.791 -21.773  11.551  1.00  0.00     0.186 C 
HETATM   58  C   UNL     1      14.705 -20.613  11.091  1.00  0.00     0.187 C 
HETATM   59  C   UNL     1      15.513 -20.084  12.300  1.00  0.00     0.303 C 
HETATM   60  C   UNL     1      14.516 -19.520  13.355  1.00  0.00     0.296 C 
HETATM   61  O   UNL     1      13.161 -19.995  13.164  1.00  0.00    -0.349 OA
HETATM   62  C   UNL     1      13.054 -21.405  12.869  1.00  0.00     0.179 C 
BRANCH  58  63
HETATM   63  O   UNL     1      15.553 -21.026  10.009  1.00  0.00    -0.391 OA
HETATM   64  H   UNL     1      16.102 -21.761  10.355  1.00  0.00     0.210 HD
ENDBRANCH  58  63
BRANCH  59  65
HETATM   65  N   UNL     1      16.392 -21.134  12.863  1.00  0.00     0.090 N 
HETATM   66  H   UNL     1      17.170 -21.261  12.212  1.00  0.00     0.313 HD
HETATM   67  H   UNL     1      15.875 -22.013  12.847  1.00  0.00     0.313 HD
ENDBRANCH  59  65
BRANCH  60  68
HETATM   68  O   UNL     1      14.968 -19.792  14.696  1.00  0.00    -0.348 OA
BRANCH  68  69
HETATM   69  C   UNL     1      15.015 -18.679  15.621  1.00  0.00     0.186 C 
HETATM   70  C   UNL     1      16.007 -18.920  16.792  1.00  0.00     0.176 C 
HETATM   71  O   UNL     1      15.820 -17.920  17.816  1.00  0.00    -0.379 OA
HETATM   72  C   UNL     1      15.977 -16.580  17.312  1.00  0.00     0.206 C 
HETATM   73  C   UNL     1      14.927 -16.254  16.219  1.00  0.00     0.278 C 
HETATM   74  C   UNL     1      15.110 -17.242  15.039  1.00  0.00     0.185 C 
BRANCH  70  75
HETATM   75  C   UNL     1      17.497 -19.059  16.390  1.00  0.00     0.198 C 
BRANCH  75  76
HETATM   76  O   UNL     1      17.641 -20.139  15.462  1.00  0.00    -0.398 OA
HETATM   77  H   UNL     1      17.762 -20.936  16.019  1.00  0.00     0.209 HD
ENDBRANCH  75  76
ENDBRANCH  70  75
BRANCH  73  78
HETATM   78  N   UNL     1      15.039 -14.864  15.712  1.00  0.00     0.126 N 
HETATM   79  H   UNL     1      14.204 -14.711  15.141  1.00  0.00     0.320 HD
HETATM   80  C   UNL     1      15.002 -13.862  16.803  1.00  0.00     0.407 C 
HETATM   81  O   UNL     1      16.330 -13.612  17.276  1.00  0.00    -0.201 OA
BRANCH  80  82
HETATM   82  C   UNL     1      14.419 -12.536  16.261  1.00  0.00     0.175 C 
BRANCH  82  83
HETATM   83  N   UNL     1      12.957 -12.455  16.488  1.00  0.00    -0.228 NA
HETATM   84  C   UNL     1      12.570 -13.516  17.441  1.00  0.00     0.130 C 
HETATM   85 CL   UNL     1      12.586 -10.965  17.210  1.00  0.00    -0.022 Cl
ENDBRANCH  82  83
ENDBRANCH  80  82
ENDBRANCH  73  78
BRANCH  74  86
HETATM   86  O   UNL     1      16.353 -16.965  14.376  1.00  0.00    -0.391 OA
HETATM   87  H   UNL     1      16.777 -17.836  14.226  1.00  0.00     0.210 HD
ENDBRANCH  74  86
ENDBRANCH  68  69
ENDBRANCH  60  68
BRANCH  62  88
HETATM   88  C   UNL     1      13.510 -22.288  14.058  1.00  0.00     0.198 C 
BRANCH  88  89
HETATM   89  O   UNL     1      12.711 -22.016  15.213  1.00  0.00    -0.398 OA
HETATM   90  H   UNL     1      13.114 -22.550  15.930  1.00  0.00     0.209 HD
ENDBRANCH  88  89
ENDBRANCH  62  88
ENDBRANCH  56  57
ENDBRANCH   4  56
TORSDOF 36
ENDMDL
MODEL 6
REMARK VINA RESULT:      -6.1      2.842      4.411
REMARK WARNING: 32 MAX_TORS EXCEEDED!!!
REMARK  36 active torsions:
REMARK  status: ('A' for Active; 'I' for Inactive)
REMARK    1  A    between atoms: C_1  and  O_66 
REMARK    2  A    between atoms: C_2  and  O_47 
REMARK    3  A    between atoms: C_4  and  O_40 
REMARK    4  A    between atoms: C_5  and  O_15 
REMARK    5  A    between atoms: C_7  and  C_17 
REMARK    6  A    between atoms: C_8  and  O_9 
REMARK    7  A    between atoms: C_11  and  N_12 
REMARK    8  A    between atoms: N_12  and  C_20 
REMARK    9  A    between atoms: C_14  and  O_15 
REMARK   10  A    between atoms: C_17  and  O_18 
REMARK   11  A    between atoms: C_20  and  O_21 
REMARK   12  A    between atoms: C_20  and  C_23 
REMARK   13  A    between atoms: C_23  and  N_24 
REMARK   14  A    between atoms: C_27  and  C_28 
REMARK   15  A    between atoms: C_28  and  O_29 
REMARK   16  A    between atoms: C_32  and  O_40 
REMARK   17  A    between atoms: C_33  and  N_34 
REMARK   18  A    between atoms: C_37  and  O_38 
REMARK   19  A    between atoms: C_41  and  C_42 
REMARK   20  A    between atoms: C_42  and  O_43 
REMARK   21  A    between atoms: C_46  and  O_47 
REMARK   22  A    between atoms: C_48  and  N_49 
REMARK       I    between atoms: N_49  and  C_51 
REMARK   23  A    between atoms: C_51  and  C_52 
REMARK   24  A    between atoms: C_52  and  N_54 
REMARK   25  A    between atoms: C_56  and  O_57 
REMARK   26  A    between atoms: C_59  and  O_60 
REMARK   27  A    between atoms: C_62  and  N_63 
REMARK   28  A    between atoms: C_65  and  O_66 
REMARK   29  A    between atoms: C_68  and  C_69 
REMARK   30  A    between atoms: C_69  and  O_70 
REMARK   31  A    between atoms: C_73  and  C_74 
REMARK   32  A    between atoms: C_74  and  O_75 
REMARK   33  A    between atoms: C_79  and  O_80 
REMARK   34  A    between atoms: C_82  and  N_83 
REMARK       I    between atoms: N_83  and  C_85 
REMARK   35  A    between atoms: C_85  and  C_87 
REMARK   36  A    between atoms: C_87  and  N_88 
ROOT
HETATM    1  C   UNL     1      10.628 -21.569   8.721  1.00  0.00     0.186 C 
HETATM    2  C   UNL     1      11.529 -20.310   8.621  1.00  0.00     0.179 C 
HETATM    3  O   UNL     1      11.659 -19.685   9.909  1.00  0.00    -0.349 OA
HETATM    4  C   UNL     1      12.375 -20.555  10.809  1.00  0.00     0.297 C 
HETATM    5  C   UNL     1      11.608 -21.884  11.032  1.00  0.00     0.309 C 
HETATM    6  C   UNL     1      11.351 -22.559   9.663  1.00  0.00     0.188 C 
ENDROOT
BRANCH   1   7
HETATM    7  O   UNL     1       9.330 -21.248   9.263  1.00  0.00    -0.348 OA
BRANCH   7   8
HETATM    8  C   UNL     1       8.279 -21.546   8.328  1.00  0.00     0.296 C 
HETATM    9  O   UNL     1       7.718 -20.294   7.911  1.00  0.00    -0.349 OA
HETATM   10  C   UNL     1       6.927 -20.494   6.721  1.00  0.00     0.179 C 
HETATM   11  C   UNL     1       6.034 -21.770   6.809  1.00  0.00     0.186 C 
HETATM   12  C   UNL     1       5.795 -22.153   8.294  1.00  0.00     0.187 C 
HETATM   13  C   UNL     1       7.161 -22.399   8.987  1.00  0.00     0.303 C 
BRANCH  10  14
HETATM   14  C   UNL     1       6.114 -19.198   6.484  1.00  0.00     0.198 C 
BRANCH  14  15
HETATM   15  O   UNL     1       5.612 -19.178   5.141  1.00  0.00    -0.398 OA
HETATM   16  H   UNL     1       4.744 -19.632   5.190  1.00  0.00     0.209 HD
ENDBRANCH  14  15
ENDBRANCH  10  14
BRANCH  11  17
HETATM   17  O   UNL     1       4.800 -21.575   6.088  1.00  0.00    -0.348 OA
BRANCH  17  18
HETATM   18  C   UNL     1       3.980 -22.760   6.080  1.00  0.00     0.296 C 
HETATM   19  C   UNL     1       2.494 -22.371   6.288  1.00  0.00     0.307 C 
HETATM   20  C   UNL     1       1.965 -21.585   5.063  1.00  0.00     0.163 C 
HETATM   21  C   UNL     1       2.305 -22.346   3.814  1.00  0.00     0.057 C 
HETATM   22  C   UNL     1       3.670 -22.965   3.670  1.00  0.00     0.155 C 
HETATM   23  O   UNL     1       4.143 -23.571   4.894  1.00  0.00    -0.351 OA
BRANCH  19  24
HETATM   24  N   UNL     1       1.697 -23.609   6.484  1.00  0.00     0.125 N 
HETATM   25  H   UNL     1       2.331 -24.407   6.395  1.00  0.00     0.320 HD
BRANCH  24  26
HETATM   26  C   UNL     1       1.113 -23.686   7.845  1.00  0.00     0.369 C 
BRANCH  26  27
HETATM   27  O   UNL     1       1.486 -22.526   8.602  1.00  0.00    -0.367 OA
HETATM   28  H   UNL     1       1.183 -22.707   9.517  1.00  0.00     0.212 HD
ENDBRANCH  26  27
BRANCH  26  29
HETATM   29  C   UNL     1       1.615 -24.990   8.509  1.00  0.00     0.171 C 
BRANCH  29  30
HETATM   30  N   UNL     1       0.692 -26.124   8.261  1.00  0.00    -0.228 NA
HETATM   31  C   UNL     1       0.839 -27.114   9.349  1.00  0.00     0.130 C 
HETATM   32 CL   UNL     1      -0.911 -25.568   8.323  1.00  0.00    -0.022 Cl
ENDBRANCH  29  30
ENDBRANCH  26  29
ENDBRANCH  24  26
ENDBRANCH  19  24
BRANCH  20  33
HETATM   33  O   UNL     1       2.520 -20.264   5.017  1.00  0.00    -0.393 OA
HETATM   34  H   UNL     1       3.467 -20.391   4.798  1.00  0.00     0.210 HD
ENDBRANCH  20  33
BRANCH  22  35
HETATM   35  C   UNL     1       4.682 -21.951   3.082  1.00  0.00     0.196 C 
BRANCH  35  36
HETATM   36  O   UNL     1       4.043 -20.697   2.817  1.00  0.00    -0.398 OA
HETATM   37  H   UNL     1       3.445 -20.866   2.059  1.00  0.00     0.209 HD
ENDBRANCH  35  36
ENDBRANCH  22  35
ENDBRANCH  17  18
ENDBRANCH  11  17
BRANCH  12  38
HETATM   38  O   UNL     1       5.086 -21.115   8.987  1.00  0.00    -0.391 OA
HETATM   39  H   UNL     1       4.980 -21.439   9.906  1.00  0.00     0.210 HD
ENDBRANCH  12  38
BRANCH  13  40
HETATM   40  N   UNL     1       7.517 -23.830   8.917  1.00  0.00     0.090 N 
HETATM   41  H   UNL     1       8.406 -23.951   9.406  1.00  0.00     0.313 HD
HETATM   42  H   UNL     1       6.812 -24.353   9.442  1.00  0.00     0.313 HD
ENDBRANCH  13  40
ENDBRANCH   7   8
ENDBRANCH   1   7
BRANCH   2  43
HETATM   43  C   UNL     1      11.023 -19.279   7.579  1.00  0.00     0.198 C 
BRANCH  43  44
HETATM   44  O   UNL     1       9.921 -18.491   8.055  1.00  0.00    -0.398 OA
HETATM   45  H   UNL     1      10.303 -17.840   8.675  1.00  0.00     0.209 HD
ENDBRANCH  43  44
ENDBRANCH   2  43
BRANCH   6  46
HETATM   46  O   UNL     1      10.603 -23.776   9.807  1.00  0.00    -0.391 OA
HETATM   47  H   UNL     1      11.182 -24.492   9.470  1.00  0.00     0.210 HD
ENDBRANCH   6  46
BRANCH   5  48
HETATM   48  N   UNL     1      12.399 -22.814  11.878  1.00  0.00     0.128 N 
HETATM   49  H   UNL     1      13.207 -22.318  12.260  1.00  0.00     0.320 HD
HETATM   50  C   UNL     1      11.600 -23.287  13.029  1.00  0.00     0.407 C 
HETATM   51  O   UNL     1      11.381 -22.218  13.958  1.00  0.00    -0.201 OA
BRANCH  50  52
HETATM   52  C   UNL     1      12.362 -24.429  13.738  1.00  0.00     0.175 C 
BRANCH  52  53
HETATM   53  N   UNL     1      13.820 -24.317  13.505  1.00  0.00    -0.228 NA
HETATM   54 CL   UNL     1      14.593 -23.947  14.968  1.00  0.00    -0.022 Cl
HETATM   55  C   UNL     1      14.331 -25.630  13.056  1.00  0.00     0.130 C 
ENDBRANCH  52  53
ENDBRANCH  50  52
ENDBRANCH   5  48
BRANCH   4  56
HETATM   56  O   UNL     1      12.494 -19.877  12.071  1.00  0.00    -0.348 OA
BRANCH  56  57
HETATM   57  C   UNL     1      13.875 -19.593  12.366  1.00  0.00     0.186 C 
HETATM   58  C   UNL     1      14.240 -18.284  11.628  1.00  0.00     0.187 C 
HETATM   59  C   UNL     1      15.578 -17.737  12.181  1.00  0.00     0.303 C 
HETATM   60  C   UNL     1      15.391 -17.402  13.690  1.00  0.00     0.296 C 
HETATM   61  O   UNL     1      14.236 -18.050  14.276  1.00  0.00    -0.349 OA
HETATM   62  C   UNL     1      14.068 -19.434  13.901  1.00  0.00     0.179 C 
BRANCH  58  63
HETATM   63  O   UNL     1      14.281 -18.490  10.209  1.00  0.00    -0.391 OA
HETATM   64  H   UNL     1      14.968 -17.883   9.862  1.00  0.00     0.210 HD
ENDBRANCH  58  63
BRANCH  59  65
HETATM   65  N   UNL     1      16.687 -18.691  11.950  1.00  0.00     0.090 N 
HETATM   66  H   UNL     1      16.282 -19.629  11.929  1.00  0.00     0.313 HD
HETATM   67  H   UNL     1      17.289 -18.671  12.774  1.00  0.00     0.313 HD
ENDBRANCH  59  65
BRANCH  60  68
HETATM   68  O   UNL     1      16.583 -17.706  14.442  1.00  0.00    -0.348 OA
BRANCH  68  69
HETATM   69  C   UNL     1      16.977 -16.769  15.474  1.00  0.00     0.186 C 
HETATM   70  C   UNL     1      18.467 -16.925  15.881  1.00  0.00     0.176 C 
HETATM   71  O   UNL     1      18.736 -16.171  17.081  1.00  0.00    -0.379 OA
HETATM   72  C   UNL     1      18.413 -14.774  16.938  1.00  0.00     0.206 C 
HETATM   73  C   UNL     1      16.905 -14.564  16.646  1.00  0.00     0.278 C 
HETATM   74  C   UNL     1      16.547 -15.284  15.322  1.00  0.00     0.185 C 
BRANCH  70  75
HETATM   75  C   UNL     1      19.501 -16.621  14.767  1.00  0.00     0.198 C 
BRANCH  75  76
HETATM   76  O   UNL     1      18.953 -16.984  13.495  1.00  0.00    -0.398 OA
HETATM   77  H   UNL     1      18.325 -16.264  13.277  1.00  0.00     0.209 HD
ENDBRANCH  75  76
ENDBRANCH  70  75
BRANCH  73  78
HETATM   78  N   UNL     1      16.536 -13.131  16.536  1.00  0.00     0.126 N 
HETATM   79  H   UNL     1      16.393 -12.959  15.538  1.00  0.00     0.320 HD
HETATM   80  C   UNL     1      15.254 -12.826  17.212  1.00  0.00     0.407 C 
HETATM   81  O   UNL     1      15.497 -12.478  18.579  1.00  0.00    -0.201 OA
BRANCH  80  82
HETATM   82  C   UNL     1      14.582 -11.620  16.514  1.00  0.00     0.175 C 
BRANCH  82  83
HETATM   83  N   UNL     1      13.109 -11.774  16.466  1.00  0.00    -0.228 NA
HETATM   84  C   UNL     1      12.768 -13.155  16.866  1.00  0.00     0.130 C 
HETATM   85 CL   UNL     1      12.402 -10.728  17.599  1.00  0.00    -0.022 Cl
ENDBRANCH  82  83
ENDBRANCH  80  82
ENDBRANCH  73  78
BRANCH  74  86
HETATM   86  O   UNL     1      17.178 -14.606  14.225  1.00  0.00    -0.391 OA
HETATM   87  H   UNL     1      16.558 -13.897  13.955  1.00  0.00     0.210 HD
ENDBRANCH  74  86
ENDBRANCH  68  69
ENDBRANCH  60  68
BRANCH  62  88
HETATM   88  C   UNL     1      15.211 -20.329  14.441  1.00  0.00     0.198 C 
BRANCH  88  89
HETATM   89  O   UNL     1      15.756 -21.128  13.386  1.00  0.00    -0.398 OA
HETATM   90  H   UNL     1      15.053 -21.156  12.703  1.00  0.00     0.209 HD
ENDBRANCH  88  89
ENDBRANCH  62  88
ENDBRANCH  56  57
ENDBRANCH   4  56
TORSDOF 36
ENDMDL
MODEL 7
REMARK VINA RESULT:      -6.0      3.230     14.754
REMARK WARNING: 32 MAX_TORS EXCEEDED!!!
REMARK  36 active torsions:
REMARK  status: ('A' for Active; 'I' for Inactive)
REMARK    1  A    between atoms: C_1  and  O_66 
REMARK    2  A    between atoms: C_2  and  O_47 
REMARK    3  A    between atoms: C_4  and  O_40 
REMARK    4  A    between atoms: C_5  and  O_15 
REMARK    5  A    between atoms: C_7  and  C_17 
REMARK    6  A    between atoms: C_8  and  O_9 
REMARK    7  A    between atoms: C_11  and  N_12 
REMARK    8  A    between atoms: N_12  and  C_20 
REMARK    9  A    between atoms: C_14  and  O_15 
REMARK   10  A    between atoms: C_17  and  O_18 
REMARK   11  A    between atoms: C_20  and  O_21 
REMARK   12  A    between atoms: C_20  and  C_23 
REMARK   13  A    between atoms: C_23  and  N_24 
REMARK   14  A    between atoms: C_27  and  C_28 
REMARK   15  A    between atoms: C_28  and  O_29 
REMARK   16  A    between atoms: C_32  and  O_40 
REMARK   17  A    between atoms: C_33  and  N_34 
REMARK   18  A    between atoms: C_37  and  O_38 
REMARK   19  A    between atoms: C_41  and  C_42 
REMARK   20  A    between atoms: C_42  and  O_43 
REMARK   21  A    between atoms: C_46  and  O_47 
REMARK   22  A    between atoms: C_48  and  N_49 
REMARK       I    between atoms: N_49  and  C_51 
REMARK   23  A    between atoms: C_51  and  C_52 
REMARK   24  A    between atoms: C_52  and  N_54 
REMARK   25  A    between atoms: C_56  and  O_57 
REMARK   26  A    between atoms: C_59  and  O_60 
REMARK   27  A    between atoms: C_62  and  N_63 
REMARK   28  A    between atoms: C_65  and  O_66 
REMARK   29  A    between atoms: C_68  and  C_69 
REMARK   30  A    between atoms: C_69  and  O_70 
REMARK   31  A    between atoms: C_73  and  C_74 
REMARK   32  A    between atoms: C_74  and  O_75 
REMARK   33  A    between atoms: C_79  and  O_80 
REMARK   34  A    between atoms: C_82  and  N_83 
REMARK       I    between atoms: N_83  and  C_85 
REMARK   35  A    between atoms: C_85  and  C_87 
REMARK   36  A    between atoms: C_87  and  N_88 
ROOT
HETATM    1  C   UNL     1      14.980 -19.373  12.504  1.00  0.00     0.186 C 
HETATM    2  C   UNL     1      13.658 -20.173  12.374  1.00  0.00     0.179 C 
HETATM    3  O   UNL     1      12.974 -19.813  11.162  1.00  0.00    -0.349 OA
HETATM    4  C   UNL     1      13.747 -20.228  10.018  1.00  0.00     0.297 C 
HETATM    5  C   UNL     1      15.123 -19.516   9.982  1.00  0.00     0.309 C 
HETATM    6  C   UNL     1      15.871 -19.788  11.310  1.00  0.00     0.188 C 
ENDROOT
BRANCH   1   7
HETATM    7  O   UNL     1      14.745 -17.951  12.459  1.00  0.00    -0.348 OA
BRANCH   7   8
HETATM    8  C   UNL     1      15.068 -17.321  13.710  1.00  0.00     0.296 C 
HETATM    9  O   UNL     1      14.131 -16.251  13.898  1.00  0.00    -0.349 OA
HETATM   10  C   UNL     1      14.160 -15.823  15.275  1.00  0.00     0.179 C 
HETATM   11  C   UNL     1      15.613 -15.707  15.830  1.00  0.00     0.186 C 
HETATM   12  C   UNL     1      16.619 -15.524  14.662  1.00  0.00     0.187 C 
HETATM   13  C   UNL     1      16.503 -16.729  13.691  1.00  0.00     0.303 C 
BRANCH  10  14
HETATM   14  C   UNL     1      13.369 -14.494  15.362  1.00  0.00     0.198 C 
BRANCH  14  15
HETATM   15  O   UNL     1      13.856 -13.573  14.380  1.00  0.00    -0.398 OA
HETATM   16  H   UNL     1      13.219 -13.634  13.638  1.00  0.00     0.209 HD
ENDBRANCH  14  15
ENDBRANCH  10  14
BRANCH  11  17
HETATM   17  O   UNL     1      15.702 -14.643  16.801  1.00  0.00    -0.348 OA
BRANCH  17  18
HETATM   18  C   UNL     1      16.660 -14.929  17.837  1.00  0.00     0.296 C 
HETATM   19  C   UNL     1      17.812 -13.893  17.788  1.00  0.00     0.307 C 
HETATM   20  C   UNL     1      17.292 -12.489  18.185  1.00  0.00     0.163 C 
HETATM   21  C   UNL     1      16.527 -12.601  19.472  1.00  0.00     0.057 C 
HETATM   22  C   UNL     1      15.570 -13.747  19.670  1.00  0.00     0.155 C 
HETATM   23  O   UNL     1      16.082 -14.998  19.161  1.00  0.00    -0.351 OA
BRANCH  19  24
HETATM   24  N   UNL     1      18.886 -14.323  18.720  1.00  0.00     0.125 N 
HETATM   25  H   UNL     1      18.480 -14.388  19.657  1.00  0.00     0.320 HD
BRANCH  24  26
HETATM   26  C   UNL     1      19.402 -15.673  18.390  1.00  0.00     0.369 C 
BRANCH  26  27
HETATM   27  O   UNL     1      20.392 -16.065  19.351  1.00  0.00    -0.367 OA
HETATM   28  H   UNL     1      19.919 -16.639  19.990  1.00  0.00     0.212 HD
ENDBRANCH  26  27
BRANCH  26  29
HETATM   29  C   UNL     1      19.981 -15.628  16.956  1.00  0.00     0.171 C 
BRANCH  29  30
HETATM   30  N   UNL     1      19.607 -16.832  16.174  1.00  0.00    -0.228 NA
HETATM   31  C   UNL     1      20.836 -17.545  15.767  1.00  0.00     0.130 C 
HETATM   32 CL   UNL     1      18.731 -17.896  17.165  1.00  0.00    -0.022 Cl
ENDBRANCH  29  30
ENDBRANCH  26  29
ENDBRANCH  24  26
ENDBRANCH  19  24
BRANCH  20  33
HETATM   33  O   UNL     1      16.468 -11.932  17.153  1.00  0.00    -0.393 OA
HETATM   34  H   UNL     1      15.686 -11.568  17.618  1.00  0.00     0.210 HD
ENDBRANCH  20  33
BRANCH  22  35
HETATM   35  C   UNL     1      14.169 -13.406  19.105  1.00  0.00     0.196 C 
BRANCH  35  36
HETATM   36  O   UNL     1      14.012 -11.989  18.970  1.00  0.00    -0.398 OA
HETATM   37  H   UNL     1      14.427 -11.762  18.111  1.00  0.00     0.209 HD
ENDBRANCH  35  36
ENDBRANCH  22  35
ENDBRANCH  17  18
ENDBRANCH  11  17
BRANCH  12  38
HETATM   38  O   UNL     1      16.362 -14.307  13.946  1.00  0.00    -0.391 OA
HETATM   39  H   UNL     1      17.124 -13.722  14.140  1.00  0.00     0.210 HD
ENDBRANCH  12  38
BRANCH  13  40
HETATM   40  N   UNL     1      17.480 -17.774  14.060  1.00  0.00     0.090 N 
HETATM   41  H   UNL     1      17.146 -18.659  13.672  1.00  0.00     0.313 HD
HETATM   42  H   UNL     1      18.362 -17.555  13.593  1.00  0.00     0.313 HD
ENDBRANCH  13  40
ENDBRANCH   7   8
ENDBRANCH   1   7
BRANCH   2  43
HETATM   43  C   UNL     1      12.714 -19.993  13.591  1.00  0.00     0.198 C 
BRANCH  43  44
HETATM   44  O   UNL     1      11.848 -21.119  13.803  1.00  0.00    -0.398 OA
HETATM   45  H   UNL     1      10.938 -20.765  13.790  1.00  0.00     0.209 HD
ENDBRANCH  43  44
ENDBRANCH   2  43
BRANCH   6  46
HETATM   46  O   UNL     1      17.137 -19.113  11.350  1.00  0.00    -0.391 OA
HETATM   47  H   UNL     1      17.443 -19.055  10.420  1.00  0.00     0.210 HD
ENDBRANCH   6  46
BRANCH   5  48
HETATM   48  N   UNL     1      15.952 -20.024   8.859  1.00  0.00     0.128 N 
HETATM   49  H   UNL     1      16.907 -19.673   8.959  1.00  0.00     0.320 HD
HETATM   50  C   UNL     1      16.030 -21.501   8.889  1.00  0.00     0.407 C 
HETATM   51  O   UNL     1      16.815 -21.937  10.005  1.00  0.00    -0.201 OA
BRANCH  50  52
HETATM   52  C   UNL     1      16.685 -21.999   7.581  1.00  0.00     0.175 C 
BRANCH  52  53
HETATM   53  N   UNL     1      15.672 -22.580   6.669  1.00  0.00    -0.228 NA
HETATM   54 CL   UNL     1      14.265 -22.931   7.549  1.00  0.00    -0.022 Cl
HETATM   55  C   UNL     1      15.315 -21.569   5.651  1.00  0.00     0.130 C 
ENDBRANCH  52  53
ENDBRANCH  50  52
ENDBRANCH   5  48
BRANCH   4  56
HETATM   56  O   UNL     1      13.011 -19.863   8.837  1.00  0.00    -0.348 OA
BRANCH  56  57
HETATM   57  C   UNL     1      11.599 -20.063   9.038  1.00  0.00     0.186 C 
HETATM   58  C   UNL     1      10.871 -19.422   7.833  1.00  0.00     0.187 C 
HETATM   59  C   UNL     1       9.402 -19.907   7.802  1.00  0.00     0.303 C 
HETATM   60  C   UNL     1       9.393 -21.451   7.602  1.00  0.00     0.296 C 
HETATM   61  O   UNL     1      10.662 -22.071   7.918  1.00  0.00    -0.349 OA
HETATM   62  C   UNL     1      11.286 -21.584   9.126  1.00  0.00     0.179 C 
BRANCH  58  63
HETATM   63  O   UNL     1      10.972 -17.992   7.876  1.00  0.00    -0.391 OA
HETATM   64  H   UNL     1      10.077 -17.659   8.097  1.00  0.00     0.210 HD
ENDBRANCH  58  63
BRANCH  59  65
HETATM   65  N   UNL     1       8.671 -19.493   9.022  1.00  0.00     0.090 N 
HETATM   66  H   UNL     1       8.181 -18.623   8.802  1.00  0.00     0.313 HD
HETATM   67  H   UNL     1       9.364 -19.246   9.729  1.00  0.00     0.313 HD
ENDBRANCH  59  65
BRANCH  60  68
HETATM   68  O   UNL     1       8.324 -22.065   8.350  1.00  0.00    -0.348 OA
BRANCH  68  69
HETATM   69  C   UNL     1       7.090 -22.341   7.644  1.00  0.00     0.186 C 
HETATM   70  C   UNL     1       6.029 -23.026   8.548  1.00  0.00     0.176 C 
HETATM   71  O   UNL     1       4.936 -23.520   7.745  1.00  0.00    -0.379 OA
HETATM   72  C   UNL     1       4.314 -22.482   6.963  1.00  0.00     0.206 C 
HETATM   73  C   UNL     1       5.312 -21.847   5.960  1.00  0.00     0.278 C 
HETATM   74  C   UNL     1       6.487 -21.221   6.752  1.00  0.00     0.185 C 
BRANCH  70  75
HETATM   75  C   UNL     1       5.525 -22.184   9.747  1.00  0.00     0.198 C 
BRANCH  75  76
HETATM   76  O   UNL     1       6.619 -21.448  10.305  1.00  0.00    -0.398 OA
HETATM   77  H   UNL     1       7.395 -22.037  10.206  1.00  0.00     0.209 HD
ENDBRANCH  75  76
ENDBRANCH  70  75
BRANCH  73  78
HETATM   78  N   UNL     1       4.685 -20.803   5.112  1.00  0.00     0.126 N 
HETATM   79  H   UNL     1       5.218 -19.948   5.288  1.00  0.00     0.320 HD
HETATM   80  C   UNL     1       4.816 -21.099   3.666  1.00  0.00     0.407 C 
HETATM   81  O   UNL     1       3.698 -21.878   3.228  1.00  0.00    -0.201 OA
BRANCH  80  82
HETATM   82  C   UNL     1       4.828 -19.772   2.871  1.00  0.00     0.175 C 
BRANCH  82  83
HETATM   83  N   UNL     1       4.787 -20.015   1.410  1.00  0.00    -0.228 NA
HETATM   84  C   UNL     1       4.087 -18.884   0.766  1.00  0.00     0.130 C 
HETATM   85 CL   UNL     1       6.372 -20.042   0.804  1.00  0.00    -0.022 Cl
ENDBRANCH  82  83
ENDBRANCH  80  82
ENDBRANCH  73  78
BRANCH  74  86
HETATM   86  O   UNL     1       6.013 -20.083   7.489  1.00  0.00    -0.391 OA
HETATM   87  H   UNL     1       6.316 -19.296   6.990  1.00  0.00     0.210 HD
ENDBRANCH  74  86
ENDBRANCH  68  69
ENDBRANCH  60  68
BRANCH  62  88
HETATM   88  C   UNL     1      10.464 -21.938  10.391  1.00  0.00     0.198 C 
BRANCH  88  89
HETATM   89  O   UNL     1      11.313 -22.509  11.390  1.00  0.00    -0.398 OA
HETATM   90  H   UNL     1      10.914 -22.239  12.244  1.00  0.00     0.209 HD
ENDBRANCH  88  89
ENDBRANCH  62  88
ENDBRANCH  56  57
ENDBRANCH   4  56
TORSDOF 36
ENDMDL
MODEL 8
REMARK VINA RESULT:      -5.9     23.135     29.520
REMARK WARNING: 32 MAX_TORS EXCEEDED!!!
REMARK  36 active torsions:
REMARK  status: ('A' for Active; 'I' for Inactive)
REMARK    1  A    between atoms: C_1  and  O_66 
REMARK    2  A    between atoms: C_2  and  O_47 
REMARK    3  A    between atoms: C_4  and  O_40 
REMARK    4  A    between atoms: C_5  and  O_15 
REMARK    5  A    between atoms: C_7  and  C_17 
REMARK    6  A    between atoms: C_8  and  O_9 
REMARK    7  A    between atoms: C_11  and  N_12 
REMARK    8  A    between atoms: N_12  and  C_20 
REMARK    9  A    between atoms: C_14  and  O_15 
REMARK   10  A    between atoms: C_17  and  O_18 
REMARK   11  A    between atoms: C_20  and  O_21 
REMARK   12  A    between atoms: C_20  and  C_23 
REMARK   13  A    between atoms: C_23  and  N_24 
REMARK   14  A    between atoms: C_27  and  C_28 
REMARK   15  A    between atoms: C_28  and  O_29 
REMARK   16  A    between atoms: C_32  and  O_40 
REMARK   17  A    between atoms: C_33  and  N_34 
REMARK   18  A    between atoms: C_37  and  O_38 
REMARK   19  A    between atoms: C_41  and  C_42 
REMARK   20  A    between atoms: C_42  and  O_43 
REMARK   21  A    between atoms: C_46  and  O_47 
REMARK   22  A    between atoms: C_48  and  N_49 
REMARK       I    between atoms: N_49  and  C_51 
REMARK   23  A    between atoms: C_51  and  C_52 
REMARK   24  A    between atoms: C_52  and  N_54 
REMARK   25  A    between atoms: C_56  and  O_57 
REMARK   26  A    between atoms: C_59  and  O_60 
REMARK   27  A    between atoms: C_62  and  N_63 
REMARK   28  A    between atoms: C_65  and  O_66 
REMARK   29  A    between atoms: C_68  and  C_69 
REMARK   30  A    between atoms: C_69  and  O_70 
REMARK   31  A    between atoms: C_73  and  C_74 
REMARK   32  A    between atoms: C_74  and  O_75 
REMARK   33  A    between atoms: C_79  and  O_80 
REMARK   34  A    between atoms: C_82  and  N_83 
REMARK       I    between atoms: N_83  and  C_85 
REMARK   35  A    between atoms: C_85  and  C_87 
REMARK   36  A    between atoms: C_87  and  N_88 
ROOT
HETATM    1  C   UNL     1      -2.393   5.223   0.239  1.00  0.00     0.186 C 
HETATM    2  C   UNL     1      -3.556   4.244  -0.068  1.00  0.00     0.179 C 
HETATM    3  O   UNL     1      -4.232   3.874   1.146  1.00  0.00    -0.349 OA
HETATM    4  C   UNL     1      -4.887   5.025   1.716  1.00  0.00     0.297 C 
HETATM    5  C   UNL     1      -3.860   6.125   2.092  1.00  0.00     0.309 C 
HETATM    6  C   UNL     1      -3.031   6.497   0.840  1.00  0.00     0.188 C 
ENDROOT
BRANCH   1   7
HETATM    7  O   UNL     1      -1.463   4.658   1.185  1.00  0.00    -0.348 OA
BRANCH   7   8
HETATM    8  C   UNL     1      -0.102   4.806   0.742  1.00  0.00     0.296 C 
HETATM    9  O   UNL     1      -0.131   5.607  -0.447  1.00  0.00    -0.349 OA
HETATM   10  C   UNL     1       1.196   6.096  -0.729  1.00  0.00     0.179 C 
HETATM   11  C   UNL     1       2.287   4.996  -0.544  1.00  0.00     0.186 C 
HETATM   12  C   UNL     1       1.649   3.586  -0.666  1.00  0.00     0.187 C 
HETATM   13  C   UNL     1       0.535   3.431   0.403  1.00  0.00     0.303 C 
BRANCH  10  14
HETATM   14  C   UNL     1       1.175   6.694  -2.157  1.00  0.00     0.198 C 
BRANCH  14  15
HETATM   15  O   UNL     1       2.326   7.524  -2.354  1.00  0.00    -0.398 OA
HETATM   16  H   UNL     1       3.030   6.912  -2.652  1.00  0.00     0.209 HD
ENDBRANCH  14  15
ENDBRANCH  10  14
BRANCH  11  17
HETATM   17  O   UNL     1       3.368   5.190  -1.478  1.00  0.00    -0.348 OA
BRANCH  17  18
HETATM   18  C   UNL     1       4.327   4.117  -1.434  1.00  0.00     0.296 C 
HETATM   19  C   UNL     1       5.095   4.043  -2.779  1.00  0.00     0.307 C 
HETATM   20  C   UNL     1       5.993   5.293  -2.956  1.00  0.00     0.163 C 
HETATM   21  C   UNL     1       6.810   5.484  -1.711  1.00  0.00     0.057 C 
HETATM   22  C   UNL     1       6.160   5.316  -0.363  1.00  0.00     0.155 C 
HETATM   23  O   UNL     1       5.243   4.200  -0.318  1.00  0.00    -0.351 OA
BRANCH  19  24
HETATM   24  N   UNL     1       5.925   2.811  -2.792  1.00  0.00     0.125 N 
HETATM   25  H   UNL     1       6.694   2.945  -2.132  1.00  0.00     0.320 HD
BRANCH  24  26
HETATM   26  C   UNL     1       5.168   1.626  -2.321  1.00  0.00     0.369 C 
BRANCH  26  27
HETATM   27  O   UNL     1       6.080   0.587  -1.937  1.00  0.00    -0.367 OA
HETATM   28  H   UNL     1       5.839   0.361  -1.014  1.00  0.00     0.212 HD
ENDBRANCH  26  27
BRANCH  26  29
HETATM   29  C   UNL     1       4.230   1.171  -3.464  1.00  0.00     0.171 C 
BRANCH  29  30
HETATM   30  N   UNL     1       3.085   0.379  -2.953  1.00  0.00    -0.228 NA
HETATM   31  C   UNL     1       1.927   0.565  -3.853  1.00  0.00     0.130 C 
HETATM   32 CL   UNL     1       3.477  -1.271  -2.999  1.00  0.00    -0.022 Cl
ENDBRANCH  29  30
ENDBRANCH  26  29
ENDBRANCH  24  26
ENDBRANCH  19  24
BRANCH  20  33
HETATM   33  O   UNL     1       5.207   6.460  -3.229  1.00  0.00    -0.393 OA
HETATM   34  H   UNL     1       5.601   7.169  -2.679  1.00  0.00     0.210 HD
ENDBRANCH  20  33
BRANCH  22  35
HETATM   35  C   UNL     1       5.507   6.638   0.109  1.00  0.00     0.196 C 
BRANCH  35  36
HETATM   36  O   UNL     1       5.947   7.734  -0.701  1.00  0.00    -0.398 OA
HETATM   37  H   UNL     1       5.147   8.278  -0.859  1.00  0.00     0.209 HD
ENDBRANCH  35  36
ENDBRANCH  22  35
ENDBRANCH  17  18
ENDBRANCH  11  17
BRANCH  12  38
HETATM   38  O   UNL     1       1.090   3.384  -1.973  1.00  0.00    -0.391 OA
HETATM   39  H   UNL     1       1.548   2.597  -2.335  1.00  0.00     0.210 HD
ENDBRANCH  12  38
BRANCH  13  40
HETATM   40  N   UNL     1       1.087   2.820   1.629  1.00  0.00     0.090 N 
HETATM   41  H   UNL     1       0.356   2.846   2.343  1.00  0.00     0.313 HD
HETATM   42  H   UNL     1       1.275   1.835   1.428  1.00  0.00     0.313 HD
ENDBRANCH  13  40
ENDBRANCH   7   8
ENDBRANCH   1   7
BRANCH   2  43
HETATM   43  C   UNL     1      -3.099   2.973  -0.830  1.00  0.00     0.198 C 
BRANCH  43  44
HETATM   44  O   UNL     1      -1.982   3.209  -1.701  1.00  0.00    -0.398 OA
HETATM   45  H   UNL     1      -2.356   3.563  -2.531  1.00  0.00     0.209 HD
ENDBRANCH  43  44
ENDBRANCH   2  43
BRANCH   6  46
HETATM   46  O   UNL     1      -2.032   7.482   1.142  1.00  0.00    -0.391 OA
HETATM   47  H   UNL     1      -1.276   6.992   1.529  1.00  0.00     0.210 HD
ENDBRANCH   6  46
BRANCH   5  48
HETATM   48  N   UNL     1      -4.550   7.345   2.583  1.00  0.00     0.128 N 
HETATM   49  H   UNL     1      -5.521   7.116   2.808  1.00  0.00     0.320 HD
HETATM   50  C   UNL     1      -3.924   7.839   3.829  1.00  0.00     0.407 C 
HETATM   51  O   UNL     1      -4.190   6.940   4.912  1.00  0.00    -0.201 OA
BRANCH  50  52
HETATM   52  C   UNL     1      -4.503   9.230   4.169  1.00  0.00     0.175 C 
BRANCH  52  53
HETATM   53  N   UNL     1      -3.588  10.308   3.725  1.00  0.00    -0.228 NA
HETATM   54 CL   UNL     1      -4.031  10.809   2.167  1.00  0.00    -0.022 Cl
HETATM   55  C   UNL     1      -3.750  11.468   4.626  1.00  0.00     0.130 C 
ENDBRANCH  52  53
ENDBRANCH  50  52
ENDBRANCH   5  48
BRANCH   4  56
HETATM   56  O   UNL     1      -5.560   4.598   2.912  1.00  0.00    -0.348 OA
BRANCH  56  57
HETATM   57  C   UNL     1      -5.171   3.255   3.261  1.00  0.00     0.186 C 
HETATM   58  C   UNL     1      -4.706   3.282   4.735  1.00  0.00     0.187 C 
HETATM   59  C   UNL     1      -4.618   1.835   5.274  1.00  0.00     0.303 C 
HETATM   60  C   UNL     1      -6.039   1.202   5.231  1.00  0.00     0.296 C 
HETATM   61  O   UNL     1      -6.948   1.907   4.350  1.00  0.00    -0.349 OA
HETATM   62  C   UNL     1      -6.377   2.290   3.080  1.00  0.00     0.179 C 
BRANCH  58  63
HETATM   63  O   UNL     1      -3.464   3.989   4.867  1.00  0.00    -0.391 OA
HETATM   64  H   UNL     1      -3.549   4.799   4.322  1.00  0.00     0.210 HD
ENDBRANCH  58  63
BRANCH  59  65
HETATM   65  N   UNL     1      -3.624   1.037   4.519  1.00  0.00     0.090 N 
HETATM   66  H   UNL     1      -3.668   0.080   4.876  1.00  0.00     0.313 HD
HETATM   67  H   UNL     1      -2.696   1.381   4.768  1.00  0.00     0.313 HD
ENDBRANCH  59  65
BRANCH  60  68
HETATM   68  O   UNL     1      -5.976  -0.196   4.886  1.00  0.00    -0.348 OA
BRANCH  68  69
HETATM   69  C   UNL     1      -6.408  -1.150   5.887  1.00  0.00     0.186 C 
HETATM   70  C   UNL     1      -7.816  -0.818   6.455  1.00  0.00     0.176 C 
HETATM   71  O   UNL     1      -8.082  -1.623   7.622  1.00  0.00    -0.379 OA
HETATM   72  C   UNL     1      -7.986  -3.035   7.352  1.00  0.00     0.206 C 
HETATM   73  C   UNL     1      -6.560  -3.432   6.893  1.00  0.00     0.278 C 
HETATM   74  C   UNL     1      -6.221  -2.663   5.590  1.00  0.00     0.185 C 
BRANCH  70  75
HETATM   75  C   UNL     1      -8.981  -0.880   5.435  1.00  0.00     0.198 C 
BRANCH  75  76
HETATM   76  O   UNL     1      -8.463  -0.729   4.109  1.00  0.00    -0.398 OA
HETATM   77  H   UNL     1      -8.917   0.061   3.750  1.00  0.00     0.209 HD
ENDBRANCH  75  76
ENDBRANCH  70  75
BRANCH  73  78
HETATM   78  N   UNL     1      -6.421  -4.889   6.648  1.00  0.00     0.126 N 
HETATM   79  H   UNL     1      -5.954  -5.264   7.476  1.00  0.00     0.320 HD
HETATM   80  C   UNL     1      -7.733  -5.571   6.549  1.00  0.00     0.407 C 
HETATM   81  O   UNL     1      -8.183  -5.562   5.190  1.00  0.00    -0.201 OA
BRANCH  80  82
HETATM   82  C   UNL     1      -7.582  -7.041   7.004  1.00  0.00     0.175 C 
BRANCH  82  83
HETATM   83  N   UNL     1      -8.524  -7.370   8.099  1.00  0.00    -0.228 NA
HETATM   84  C   UNL     1      -9.901  -7.126   7.621  1.00  0.00     0.130 C 
HETATM   85 CL   UNL     1      -8.399  -9.022   8.465  1.00  0.00    -0.022 Cl
ENDBRANCH  82  83
ENDBRANCH  80  82
ENDBRANCH  73  78
BRANCH  74  86
HETATM   86  O   UNL     1      -7.045  -3.152   4.521  1.00  0.00    -0.391 OA
HETATM   87  H   UNL     1      -7.865  -3.484   4.945  1.00  0.00     0.210 HD
ENDBRANCH  74  86
ENDBRANCH  68  69
ENDBRANCH  60  68
BRANCH  62  88
HETATM   88  C   UNL     1      -6.016   1.062   2.207  1.00  0.00     0.198 C 
BRANCH  88  89
HETATM   89  O   UNL     1      -4.661   1.154   1.759  1.00  0.00    -0.398 OA
HETATM   90  H   UNL     1      -4.395   2.079   1.949  1.00  0.00     0.209 HD
ENDBRANCH  88  89
ENDBRANCH  62  88
ENDBRANCH  56  57
ENDBRANCH   4  56
TORSDOF 36
ENDMDL
MODEL 9
REMARK VINA RESULT:      -5.8      9.881     16.097
REMARK WARNING: 32 MAX_TORS EXCEEDED!!!
REMARK  36 active torsions:
REMARK  status: ('A' for Active; 'I' for Inactive)
REMARK    1  A    between atoms: C_1  and  O_66 
REMARK    2  A    between atoms: C_2  and  O_47 
REMARK    3  A    between atoms: C_4  and  O_40 
REMARK    4  A    between atoms: C_5  and  O_15 
REMARK    5  A    between atoms: C_7  and  C_17 
REMARK    6  A    between atoms: C_8  and  O_9 
REMARK    7  A    between atoms: C_11  and  N_12 
REMARK    8  A    between atoms: N_12  and  C_20 
REMARK    9  A    between atoms: C_14  and  O_15 
REMARK   10  A    between atoms: C_17  and  O_18 
REMARK   11  A    between atoms: C_20  and  O_21 
REMARK   12  A    between atoms: C_20  and  C_23 
REMARK   13  A    between atoms: C_23  and  N_24 
REMARK   14  A    between atoms: C_27  and  C_28 
REMARK   15  A    between atoms: C_28  and  O_29 
REMARK   16  A    between atoms: C_32  and  O_40 
REMARK   17  A    between atoms: C_33  and  N_34 
REMARK   18  A    between atoms: C_37  and  O_38 
REMARK   19  A    between atoms: C_41  and  C_42 
REMARK   20  A    between atoms: C_42  and  O_43 
REMARK   21  A    between atoms: C_46  and  O_47 
REMARK   22  A    between atoms: C_48  and  N_49 
REMARK       I    between atoms: N_49  and  C_51 
REMARK   23  A    between atoms: C_51  and  C_52 
REMARK   24  A    between atoms: C_52  and  N_54 
REMARK   25  A    between atoms: C_56  and  O_57 
REMARK   26  A    between atoms: C_59  and  O_60 
REMARK   27  A    between atoms: C_62  and  N_63 
REMARK   28  A    between atoms: C_65  and  O_66 
REMARK   29  A    between atoms: C_68  and  C_69 
REMARK   30  A    between atoms: C_69  and  O_70 
REMARK   31  A    between atoms: C_73  and  C_74 
REMARK   32  A    between atoms: C_74  and  O_75 
REMARK   33  A    between atoms: C_79  and  O_80 
REMARK   34  A    between atoms: C_82  and  N_83 
REMARK       I    between atoms: N_83  and  C_85 
REMARK   35  A    between atoms: C_85  and  C_87 
REMARK   36  A    between atoms: C_87  and  N_88 
ROOT
HETATM    1  C   UNL     1       1.861 -15.930  -3.070  1.00  0.00     0.186 C 
HETATM    2  C   UNL     1       2.724 -17.134  -3.530  1.00  0.00     0.179 C 
HETATM    3  O   UNL     1       2.574 -18.234  -2.616  1.00  0.00    -0.349 OA
HETATM    4  C   UNL     1       1.223 -18.735  -2.664  1.00  0.00     0.297 C 
HETATM    5  C   UNL     1       0.207 -17.648  -2.226  1.00  0.00     0.309 C 
HETATM    6  C   UNL     1       0.387 -16.395  -3.117  1.00  0.00     0.188 C 
ENDROOT
BRANCH   1   7
HETATM    7  O   UNL     1       2.196 -15.523  -1.728  1.00  0.00    -0.348 OA
BRANCH   7   8
HETATM    8  C   UNL     1       2.260 -14.091  -1.610  1.00  0.00     0.296 C 
HETATM    9  O   UNL     1       0.990 -13.651  -1.109  1.00  0.00    -0.349 OA
HETATM   10  C   UNL     1       1.106 -12.297  -0.626  1.00  0.00     0.179 C 
HETATM   11  C   UNL     1       1.932 -11.390  -1.590  1.00  0.00     0.186 C 
HETATM   12  C   UNL     1       1.921 -11.986  -3.023  1.00  0.00     0.187 C 
HETATM   13  C   UNL     1       2.512 -13.420  -2.988  1.00  0.00     0.303 C 
BRANCH  10  14
HETATM   14  C   UNL     1      -0.329 -11.770  -0.377  1.00  0.00     0.198 C 
BRANCH  14  15
HETATM   15  O   UNL     1      -0.323 -10.843   0.716  1.00  0.00    -0.398 OA
HETATM   16  H   UNL     1      -1.186 -10.974   1.161  1.00  0.00     0.209 HD
ENDBRANCH  14  15
ENDBRANCH  10  14
BRANCH  11  17
HETATM   17  O   UNL     1       1.441 -10.035  -1.556  1.00  0.00    -0.348 OA
BRANCH  17  18
HETATM   18  C   UNL     1       2.506  -9.072  -1.438  1.00  0.00     0.296 C 
HETATM   19  C   UNL     1       3.085  -8.756  -2.841  1.00  0.00     0.307 C 
HETATM   20  C   UNL     1       2.039  -8.001  -3.699  1.00  0.00     0.163 C 
HETATM   21  C   UNL     1       1.501  -6.846  -2.905  1.00  0.00     0.057 C 
HETATM   22  C   UNL     1       1.156  -7.041  -1.452  1.00  0.00     0.155 C 
HETATM   23  O   UNL     1       2.119  -7.859  -0.752  1.00  0.00    -0.351 OA
BRANCH  19  24
HETATM   24  N   UNL     1       4.308  -7.927  -2.680  1.00  0.00     0.125 N 
HETATM   25  H   UNL     1       4.106  -7.204  -1.986  1.00  0.00     0.320 HD
BRANCH  24  26
HETATM   26  C   UNL     1       5.447  -8.714  -2.150  1.00  0.00     0.369 C 
BRANCH  26  27
HETATM   27  O   UNL     1       6.525  -7.834  -1.798  1.00  0.00    -0.367 OA
HETATM   28  H   UNL     1       6.239  -7.395  -0.969  1.00  0.00     0.212 HD
ENDBRANCH  26  27
BRANCH  26  29
HETATM   29  C   UNL     1       5.871  -9.734  -3.234  1.00  0.00     0.171 C 
BRANCH  29  30
HETATM   30  N   UNL     1       5.890 -11.120  -2.706  1.00  0.00    -0.228 NA
HETATM   31  C   UNL     1       7.264 -11.657  -2.807  1.00  0.00     0.130 C 
HETATM   32 CL   UNL     1       5.497 -11.098  -1.055  1.00  0.00    -0.022 Cl
ENDBRANCH  29  30
ENDBRANCH  26  29
ENDBRANCH  24  26
ENDBRANCH  19  24
BRANCH  20  33
HETATM   33  O   UNL     1       0.977  -8.874  -4.105  1.00  0.00    -0.393 OA
HETATM   34  H   UNL     1       0.523  -9.129  -3.275  1.00  0.00     0.210 HD
ENDBRANCH  20  33
BRANCH  22  35
HETATM   35  C   UNL     1      -0.293  -7.563  -1.289  1.00  0.00     0.196 C 
BRANCH  35  36
HETATM   36  O   UNL     1      -0.478  -8.138   0.010  1.00  0.00    -0.398 OA
HETATM   37  H   UNL     1      -0.575  -9.102  -0.145  1.00  0.00     0.209 HD
ENDBRANCH  35  36
ENDBRANCH  22  35
ENDBRANCH  17  18
ENDBRANCH  11  17
BRANCH  12  38
HETATM   38  O   UNL     1       0.589 -12.030  -3.554  1.00  0.00    -0.391 OA
HETATM   39  H   UNL     1       0.592 -11.424  -4.323  1.00  0.00     0.210 HD
ENDBRANCH  12  38
BRANCH  13  40
HETATM   40  N   UNL     1       3.962 -13.381  -3.267  1.00  0.00     0.090 N 
HETATM   41  H   UNL     1       4.330 -12.514  -2.868  1.00  0.00     0.313 HD
HETATM   42  H   UNL     1       4.399 -14.154  -2.760  1.00  0.00     0.313 HD
ENDBRANCH  13  40
ENDBRANCH   7   8
ENDBRANCH   1   7
BRANCH   2  43
HETATM   43  C   UNL     1       4.224 -16.782  -3.696  1.00  0.00     0.198 C 
BRANCH  43  44
HETATM   44  O   UNL     1       4.839 -16.343  -2.475  1.00  0.00    -0.398 OA
HETATM   45  H   UNL     1       5.142 -17.152  -2.019  1.00  0.00     0.209 HD
ENDBRANCH  43  44
ENDBRANCH   2  43
BRANCH   6  46
HETATM   46  O   UNL     1      -0.501 -15.338  -2.725  1.00  0.00    -0.391 OA
HETATM   47  H   UNL     1      -0.110 -14.510  -3.077  1.00  0.00     0.210 HD
ENDBRANCH   6  46
BRANCH   5  48
HETATM   48  N   UNL     1      -1.187 -18.139  -2.375  1.00  0.00     0.128 N 
HETATM   49  H   UNL     1      -1.834 -17.355  -2.262  1.00  0.00     0.320 HD
HETATM   50  C   UNL     1      -1.409 -18.690  -3.730  1.00  0.00     0.407 C 
HETATM   51  O   UNL     1      -1.401 -17.639  -4.704  1.00  0.00    -0.201 OA
BRANCH  50  52
HETATM   52  C   UNL     1      -2.778 -19.406  -3.766  1.00  0.00     0.175 C 
BRANCH  52  53
HETATM   53  N   UNL     1      -3.448 -19.202  -5.072  1.00  0.00    -0.228 NA
HETATM   54 CL   UNL     1      -3.405 -20.650  -5.954  1.00  0.00    -0.022 Cl
HETATM   55  C   UNL     1      -4.869 -18.875  -4.829  1.00  0.00     0.130 C 
ENDBRANCH  52  53
ENDBRANCH  50  52
ENDBRANCH   5  48
BRANCH   4  56
HETATM   56  O   UNL     1       1.134 -19.840  -1.749  1.00  0.00    -0.348 OA
BRANCH  56  57
HETATM   57  C   UNL     1       1.582 -19.451  -0.437  1.00  0.00     0.186 C 
HETATM   58  C   UNL     1       0.485 -19.878   0.566  1.00  0.00     0.187 C 
HETATM   59  C   UNL     1       1.051 -19.816   2.005  1.00  0.00     0.303 C 
HETATM   60  C   UNL     1       2.228 -20.830   2.119  1.00  0.00     0.296 C 
HETATM   61  O   UNL     1       2.759 -21.229   0.833  1.00  0.00    -0.349 OA
HETATM   62  C   UNL     1       2.932 -20.148  -0.109  1.00  0.00     0.179 C 
BRANCH  58  63
HETATM   63  O   UNL     1      -0.693 -19.075   0.410  1.00  0.00    -0.391 OA
HETATM   64  H   UNL     1      -1.318 -19.362   1.108  1.00  0.00     0.210 HD
ENDBRANCH  58  63
BRANCH  59  65
HETATM   65  N   UNL     1       1.458 -18.439   2.366  1.00  0.00     0.090 N 
HETATM   66  H   UNL     1       2.370 -18.502   2.824  1.00  0.00     0.313 HD
HETATM   67  H   UNL     1       0.814 -18.104   3.083  1.00  0.00     0.313 HD
ENDBRANCH  59  65
BRANCH  60  68
HETATM   68  O   UNL     1       3.275 -20.317   2.967  1.00  0.00    -0.348 OA
BRANCH  68  69
HETATM   69  C   UNL     1       3.281 -20.744   4.351  1.00  0.00     0.186 C 
HETATM   70  C   UNL     1       4.489 -20.175   5.144  1.00  0.00     0.176 C 
HETATM   71  O   UNL     1       4.600 -20.835   6.422  1.00  0.00    -0.379 OA
HETATM   72  C   UNL     1       3.400 -20.717   7.210  1.00  0.00     0.206 C 
HETATM   73  C   UNL     1       2.188 -21.378   6.506  1.00  0.00     0.278 C 
HETATM   74  C   UNL     1       1.949 -20.670   5.149  1.00  0.00     0.185 C 
BRANCH  70  75
HETATM   75  C   UNL     1       4.528 -18.632   5.289  1.00  0.00     0.198 C 
BRANCH  75  76
HETATM   76  O   UNL     1       3.794 -18.033   4.216  1.00  0.00    -0.398 OA
HETATM   77  H   UNL     1       3.384 -18.786   3.741  1.00  0.00     0.209 HD
ENDBRANCH  75  76
ENDBRANCH  70  75
BRANCH  73  78
HETATM   78  N   UNL     1       0.946 -21.307   7.317  1.00  0.00     0.126 N 
HETATM   79  H   UNL     1       0.636 -20.335   7.260  1.00  0.00     0.320 HD
HETATM   80  C   UNL     1      -0.143 -22.138   6.752  1.00  0.00     0.407 C 
HETATM   81  O   UNL     1      -0.073 -23.462   7.293  1.00  0.00    -0.201 OA
BRANCH  80  82
HETATM   82  C   UNL     1      -1.509 -21.524   7.139  1.00  0.00     0.175 C 
BRANCH  82  83
HETATM   83  N   UNL     1      -2.505 -22.574   7.455  1.00  0.00    -0.228 NA
HETATM   84  C   UNL     1      -3.454 -22.035   8.451  1.00  0.00     0.130 C 
HETATM   85 CL   UNL     1      -3.392 -22.941   6.056  1.00  0.00    -0.022 Cl
ENDBRANCH  82  83
ENDBRANCH  80  82
ENDBRANCH  73  78
BRANCH  74  86
HETATM   86  O   UNL     1       1.487 -19.332   5.385  1.00  0.00    -0.391 OA
HETATM   87  H   UNL     1       0.544 -19.415   5.641  1.00  0.00     0.210 HD
ENDBRANCH  74  86
ENDBRANCH  68  69
ENDBRANCH  60  68
BRANCH  62  88
HETATM   88  C   UNL     1       4.013 -19.139   0.354  1.00  0.00     0.198 C 
BRANCH  88  89
HETATM   89  O   UNL     1       3.651 -17.811  -0.037  1.00  0.00    -0.398 OA
HETATM   90  H   UNL     1       3.793 -17.265   0.765  1.00  0.00     0.209 HD
ENDBRANCH  88  89
ENDBRANCH  62  88
ENDBRANCH  56  57
ENDBRANCH   4  56
TORSDOF 36
ENDMDL
