MODEL 1
REMARK VINA RESULT:      -6.2      0.000      0.000
REMARK WARNING: 32 MAX_TORS EXCEEDED!!!
REMARK  58 active torsions:
REMARK  status: ('A' for Active; 'I' for Inactive)
REMARK    1  A    between atoms: C_1  and  O_30 
REMARK    2  A    between atoms: C_2  and  C_6 
REMARK    3  A    between atoms: C_3  and  O_9 
REMARK    4  A    between atoms: C_4  and  N_11 
REMARK    5  A    between atoms: C_5  and  O_12 
REMARK    6  A    between atoms: C_6  and  O_7 
REMARK    7  A    between atoms: N_11  and  C_118 
REMARK    8  A    between atoms: O_12  and  C_20 
REMARK    9  A    between atoms: O_14  and  C_18 
REMARK   10  A    between atoms: C_16  and  C_23 
REMARK   11  A    between atoms: O_17  and  C_23 
REMARK   12  A    between atoms: O_19  and  C_22 
REMARK   13  A    between atoms: O_19  and  C_42 
REMARK   14  A    between atoms: N_21  and  C_24 
REMARK   15  A    between atoms: O_26  and  C_29 
REMARK   16  A    between atoms: C_28  and  C_34 
REMARK   17  A    between atoms: O_30  and  C_33 
REMARK   18  A    between atoms: C_31  and  O_53 
REMARK   19  A    between atoms: N_32  and  C_35 
REMARK   20  A    between atoms: C_34  and  O_65 
REMARK   21  A    between atoms: O_37  and  C_41 
REMARK   22  A    between atoms: C_39  and  C_45 
REMARK   23  A    between atoms: O_40  and  C_45 
REMARK   24  A    between atoms: N_43  and  C_46 
REMARK   25  A    between atoms: O_48  and  C_52 
REMARK   26  A    between atoms: C_50  and  C_57 
REMARK   27  A    between atoms: O_51  and  C_57 
REMARK   28  A    between atoms: O_53  and  C_56 
REMARK   29  A    between atoms: N_55  and  C_58 
REMARK   30  A    between atoms: N_55  and  C_71 
REMARK   31  A    between atoms: C_71  and  C_73 
REMARK   32  A    between atoms: C_73  and  C_74 
REMARK   33  A    between atoms: C_73  and  N_87 
REMARK   34  A    between atoms: C_74  and  C_75 
REMARK   35  A    between atoms: C_75  and  C_76 
REMARK   36  A    between atoms: C_75  and  N_101 
REMARK   37  A    between atoms: C_76  and  C_77 
REMARK   38  A    between atoms: C_77  and  C_78 
REMARK   39  A    between atoms: C_77  and  N_91 
REMARK   40  A    between atoms: C_78  and  C_79 
REMARK   41  A    between atoms: C_79  and  C_80 
REMARK   42  A    between atoms: C_79  and  N_106 
REMARK   43  A    between atoms: C_80  and  C_81 
REMARK   44  A    between atoms: C_81  and  N_96 
REMARK   45  A    between atoms: N_113  and  C_119 
REMARK   46  A    between atoms: C_118  and  C_119 
REMARK   47  A    between atoms: C_119  and  C_126 
REMARK   48  A    between atoms: N_122  and  C_128 
REMARK   49  A    between atoms: C_124  and  C_128 
REMARK   50  A    between atoms: C_124  and  C_130 
REMARK   51  A    between atoms: N_125  and  C_135 
REMARK   52  A    between atoms: C_126  and  C_130 
REMARK   53  A    between atoms: C_128  and  C_132 
REMARK   54  A    between atoms: N_129  and  C_130 
REMARK   55  A    between atoms: C_132  and  C_137 
REMARK   56  A    between atoms: C_135  and  C_136 
REMARK   57  A    between atoms: C_136  and  C_137 
REMARK   58  A    between atoms: C_137  and  N_140 
ROOT
HETATM    1  C   UNL     1       0.961 -18.434  -1.339  1.00  0.00     0.186 C 
HETATM    2  C   UNL     1       2.300 -18.034  -0.606  1.00  0.00     0.179 C 
HETATM    3  C   UNL     1       0.973 -19.837  -2.025  1.00  0.00     0.188 C 
HETATM    4  C   UNL     1       1.916 -20.856  -1.323  1.00  0.00     0.306 C 
HETATM    5  C   UNL     1       3.267 -20.071  -1.385  1.00  0.00     0.296 C 
HETATM    6  O   UNL     1       3.254 -19.103  -0.357  1.00  0.00    -0.349 OA
ENDROOT
BRANCH   1   7
HETATM    7  O   UNL     1      -0.139 -18.336  -0.414  1.00  0.00    -0.348 OA
BRANCH   7   8
HETATM    8  C   UNL     1      -0.997 -17.197  -0.624  1.00  0.00     0.296 C 
HETATM    9  O   UNL     1      -0.542 -16.540  -1.810  1.00  0.00    -0.349 OA
HETATM   10  C   UNL     1      -1.239 -15.325  -2.156  1.00  0.00     0.179 C 
HETATM   11  C   UNL     1      -1.362 -14.357  -0.958  1.00  0.00     0.186 C 
HETATM   12  C   UNL     1      -0.493 -14.839   0.215  1.00  0.00     0.187 C 
HETATM   13  C   UNL     1      -0.945 -16.249   0.624  1.00  0.00     0.303 C 
BRANCH  10  14
HETATM   14  C   UNL     1      -2.612 -15.642  -2.779  1.00  0.00     0.198 C 
BRANCH  14  15
HETATM   15  O   UNL     1      -3.612 -14.718  -2.357  1.00  0.00    -0.398 OA
HETATM   16  H   UNL     1      -4.028 -15.082  -1.553  1.00  0.00     0.209 HD
ENDBRANCH  14  15
ENDBRANCH  10  14
BRANCH  11  17
HETATM   17  O   UNL     1      -0.937 -13.030  -1.281  1.00  0.00    -0.348 OA
BRANCH  17  18
HETATM   18  C   UNL     1      -1.675 -11.986  -0.659  1.00  0.00     0.296 C 
HETATM   19  O   UNL     1      -3.068 -12.247  -0.794  1.00  0.00    -0.351 OA
HETATM   20  C   UNL     1      -3.918 -11.113  -1.027  1.00  0.00     0.150 C 
HETATM   21  C   UNL     1      -3.467  -9.897  -0.223  1.00  0.00     0.068 C 
HETATM   22  C   UNL     1      -2.002  -9.528  -0.485  1.00  0.00     0.158 C 
HETATM   23  C   UNL     1      -1.187 -10.621  -1.224  1.00  0.00     0.303 C 
BRANCH  20  24
HETATM   24  C   UNL     1      -5.365 -11.504  -0.679  1.00  0.00     0.196 C 
BRANCH  24  25
HETATM   25  O   UNL     1      -5.504 -12.923  -0.715  1.00  0.00    -0.398 OA
HETATM   26  H   UNL     1      -5.486 -13.193  -1.650  1.00  0.00     0.209 HD
ENDBRANCH  24  25
ENDBRANCH  20  24
BRANCH  22  27
HETATM   27  O   UNL     1      -1.946  -8.297  -1.217  1.00  0.00    -0.393 OA
HETATM   28  H   UNL     1      -2.840  -8.196  -1.609  1.00  0.00     0.210 HD
ENDBRANCH  22  27
BRANCH  23  29
HETATM   29  N   UNL     1      -1.312 -10.384  -2.691  1.00  0.00     0.097 N 
HETATM   30  H   UNL     1      -2.216 -10.772  -2.974  1.00  0.00     0.316 HD
BRANCH  29  31
HETATM   31  C   UNL     1      -0.337 -11.069  -3.559  1.00  0.00     0.296 C 
BRANCH  31  32
HETATM   32  C   UNL     1       1.182 -10.974  -3.121  1.00  0.00     0.120 C 
BRANCH  32  33
HETATM   33  C   UNL     1       1.770  -9.591  -3.574  1.00  0.00     0.053 C 
BRANCH  33  34
HETATM   34  C   UNL     1       2.548  -8.658  -2.562  1.00  0.00     0.094 C 
BRANCH  34  35
HETATM   35  C   UNL     1       1.523  -7.556  -2.010  1.00  0.00     0.051 C 
BRANCH  35  36
HETATM   36  C   UNL     1       1.408  -6.099  -2.577  1.00  0.00     0.094 C 
BRANCH  36  37
HETATM   37  C   UNL     1       1.898  -5.957  -4.062  1.00  0.00     0.051 C 
BRANCH  37  38
HETATM   38  C   UNL     1       2.980  -4.862  -4.314  1.00  0.00     0.094 C 
BRANCH  38  39
HETATM   39  C   UNL     1       3.405  -4.121  -2.996  1.00  0.00     0.051 C 
BRANCH  39  40
HETATM   40  C   UNL     1       2.819  -2.741  -2.587  1.00  0.00     0.089 C 
HETATM   41  C   UNL     1       1.694  -2.355  -3.564  1.00  0.00     0.033 C 
BRANCH  40  42
HETATM   42  N   UNL     1       2.300  -2.632  -1.232  1.00  0.00    -0.334 N 
HETATM   43  C   UNL     1       1.407  -1.685  -0.805  1.00  0.00     0.210 A 
HETATM   44  N   UNL     1       1.103  -1.846   0.461  1.00  0.00    -0.254 NA
HETATM   45  C   UNL     1       1.814  -2.946   0.863  1.00  0.00     0.150 A 
HETATM   46  C   UNL     1       2.553  -3.465  -0.177  1.00  0.00     0.082 A 
ENDBRANCH  40  42
ENDBRANCH  39  40
ENDBRANCH  38  39
BRANCH  38  47
HETATM   47  N   UNL     1       4.051  -5.212  -5.236  1.00  0.00    -0.339 N 
HETATM   48  C   UNL     1       4.427  -6.477  -5.599  1.00  0.00     0.209 C 
HETATM   49  N   UNL     1       5.536  -6.476  -6.298  1.00  0.00    -0.254 NA
HETATM   50  C   UNL     1       5.804  -5.165  -6.545  1.00  0.00     0.142 C 
HETATM   51  C   UNL     1       4.857  -4.347  -5.960  1.00  0.00     0.026 C 
HETATM   52  C   UNL     1       4.693  -2.882  -6.131  1.00  0.00     0.070 C 
ENDBRANCH  38  47
ENDBRANCH  37  38
ENDBRANCH  36  37
BRANCH  36  53
HETATM   53  N   UNL     1       0.030  -5.599  -2.527  1.00  0.00    -0.345 N 
HETATM   54  C   UNL     1      -0.570  -4.972  -1.471  1.00  0.00     0.209 A 
HETATM   55  N   UNL     1      -1.763  -4.524  -1.793  1.00  0.00    -0.255 NA
HETATM   56  C   UNL     1      -1.940  -4.859  -3.105  1.00  0.00     0.135 A 
HETATM   57  C   UNL     1      -0.826  -5.497  -3.594  1.00  0.00     0.111 A 
ENDBRANCH  36  53
ENDBRANCH  35  36
ENDBRANCH  34  35
BRANCH  34  58
HETATM   58  N   UNL     1       3.528  -9.308  -1.681  1.00  0.00    -0.339 N 
HETATM   59  C   UNL     1       3.233  -9.693  -0.390  1.00  0.00     0.209 C 
HETATM   60  N   UNL     1       4.256 -10.185   0.259  1.00  0.00    -0.254 NA
HETATM   61  C   UNL     1       5.306  -9.997  -0.571  1.00  0.00     0.142 C 
HETATM   62  C   UNL     1       4.921  -9.338  -1.726  1.00  0.00     0.026 C 
HETATM   63  C   UNL     1       5.867  -8.745  -2.703  1.00  0.00     0.070 C 
ENDBRANCH  34  58
ENDBRANCH  33  34
ENDBRANCH  32  33
BRANCH  32  64
HETATM   64  N   UNL     1       2.009 -12.154  -3.389  1.00  0.00    -0.344 N 
HETATM   65  C   UNL     1       2.198 -12.853  -4.554  1.00  0.00     0.111 A 
HETATM   66  C   UNL     1       3.051 -13.886  -4.253  1.00  0.00     0.135 A 
HETATM   67  N   UNL     1       3.360 -13.876  -2.929  1.00  0.00    -0.255 NA
HETATM   68  C   UNL     1       2.724 -12.839  -2.438  1.00  0.00     0.209 A 
ENDBRANCH  32  64
ENDBRANCH  31  32
ENDBRANCH  29  31
ENDBRANCH  23  29
ENDBRANCH  17  18
ENDBRANCH  11  17
BRANCH  12  69
HETATM   69  O   UNL     1       0.906 -14.826  -0.111  1.00  0.00    -0.391 OA
HETATM   70  H   UNL     1       1.404 -14.883   0.729  1.00  0.00     0.210 HD
ENDBRANCH  12  69
BRANCH  13  71
HETATM   71  N   UNL     1      -0.109 -16.738   1.740  1.00  0.00     0.090 N 
HETATM   72  H   UNL     1       0.820 -16.893   1.337  1.00  0.00     0.313 HD
HETATM   73  H   UNL     1      -0.446 -17.691   1.932  1.00  0.00     0.313 HD
ENDBRANCH  13  71
ENDBRANCH   7   8
ENDBRANCH   1   7
BRANCH   2  74
HETATM   74  C   UNL     1       3.000 -16.900  -1.396  1.00  0.00     0.198 C 
BRANCH  74  75
HETATM   75  O   UNL     1       4.295 -16.636  -0.870  1.00  0.00    -0.398 OA
HETATM   76  H   UNL     1       4.901 -17.322  -1.201  1.00  0.00     0.209 HD
ENDBRANCH  74  75
ENDBRANCH   2  74
BRANCH   3  77
HETATM   77  O   UNL     1      -0.345 -20.353  -2.237  1.00  0.00    -0.391 OA
HETATM   78  H   UNL     1      -0.271 -21.199  -2.710  1.00  0.00     0.210 HD
ENDBRANCH   3  77
BRANCH   4  79
HETATM   79  N   UNL     1       1.255 -21.284  -0.051  1.00  0.00     0.097 N 
HETATM   80  H   UNL     1       0.298 -21.565  -0.244  1.00  0.00     0.316 HD
BRANCH  79  81
HETATM   81  C   UNL     1       1.935 -22.244   0.836  1.00  0.00     0.296 C 
BRANCH  81  82
HETATM   82  C   UNL     1       2.126 -21.791   2.380  1.00  0.00     0.120 C 
BRANCH  82  83
HETATM   83  N   UNL     1       3.237 -20.862   2.580  1.00  0.00    -0.344 N 
HETATM   84  C   UNL     1       3.192 -19.559   3.006  1.00  0.00     0.111 A 
HETATM   85  C   UNL     1       4.495 -19.116   2.990  1.00  0.00     0.135 A 
HETATM   86  N   UNL     1       5.328 -20.094   2.527  1.00  0.00    -0.255 NA
HETATM   87  C   UNL     1       4.546 -21.113   2.259  1.00  0.00     0.209 A 
ENDBRANCH  82  83
BRANCH  82  88
HETATM   88  C   UNL     1       0.750 -21.377   3.022  1.00  0.00     0.053 C 
BRANCH  88  89
HETATM   89  C   UNL     1      -0.279 -22.343   3.753  1.00  0.00     0.094 C 
BRANCH  89  90
HETATM   90  C   UNL     1      -0.981 -21.774   5.073  1.00  0.00     0.051 C 
BRANCH  90  91
HETATM   91  C   UNL     1      -0.625 -22.394   6.503  1.00  0.00     0.094 C 
BRANCH  91  92
HETATM   92  N   UNL     1      -1.811 -22.592   7.345  1.00  0.00    -0.345 N 
HETATM   93  C   UNL     1      -2.365 -23.791   7.709  1.00  0.00     0.111 A 
HETATM   94  C   UNL     1      -3.580 -23.475   8.271  1.00  0.00     0.135 A 
HETATM   95  N   UNL     1      -3.786 -22.125   8.241  1.00  0.00    -0.255 NA
HETATM   96  C   UNL     1      -2.706 -21.616   7.693  1.00  0.00     0.209 A 
ENDBRANCH  91  92
BRANCH  91  97
HETATM   97  C   UNL     1       0.421 -21.581   7.359  1.00  0.00     0.051 C 
BRANCH  97  98
HETATM   98  C   UNL     1       1.915 -22.093   7.380  1.00  0.00     0.094 C 
BRANCH  98  99
HETATM   99  C   UNL     1       2.596 -21.810   8.788  1.00  0.00     0.051 C 
BRANCH  99 100
HETATM  100  C   UNL     1       4.142 -21.794   9.007  1.00  0.00     0.089 C 
HETATM  101  C   UNL     1       4.704 -23.225   8.897  1.00  0.00     0.033 C 
BRANCH 100 102
HETATM  102  N   UNL     1       4.907 -20.952   8.095  1.00  0.00    -0.334 N 
HETATM  103  C   UNL     1       6.246 -20.675   8.151  1.00  0.00     0.082 A 
HETATM  104  C   UNL     1       6.477 -19.841   7.079  1.00  0.00     0.150 A 
HETATM  105  N   UNL     1       5.315 -19.575   6.403  1.00  0.00    -0.254 NA
HETATM  106  C   UNL     1       4.387 -20.260   7.032  1.00  0.00     0.210 A 
ENDBRANCH 100 102
ENDBRANCH  99 100
ENDBRANCH  98  99
BRANCH  98 107
HETATM  107  N   UNL     1       2.240 -23.373   6.763  1.00  0.00    -0.339 N 
HETATM  108  C   UNL     1       2.924 -23.575   5.596  1.00  0.00     0.209 C 
HETATM  109  N   UNL     1       2.560 -24.695   5.012  1.00  0.00    -0.254 NA
HETATM  110  C   UNL     1       1.837 -25.364   5.950  1.00  0.00     0.142 C 
HETATM  111  C   UNL     1       1.743 -24.619   7.108  1.00  0.00     0.026 C 
HETATM  112  C   UNL     1       1.329 -25.084   8.447  1.00  0.00     0.070 C 
ENDBRANCH  98 107
ENDBRANCH  97  98
ENDBRANCH  91  97
ENDBRANCH  90  91
ENDBRANCH  89  90
BRANCH  89 113
HETATM  113  N   UNL     1      -1.020 -23.313   2.926  1.00  0.00    -0.339 N 
HETATM  114  C   UNL     1      -1.888 -23.221   1.854  1.00  0.00     0.026 C 
HETATM  115  C   UNL     1      -2.177 -24.530   1.502  1.00  0.00     0.142 C 
HETATM  116  C   UNL     1      -2.410 -22.049   1.126  1.00  0.00     0.070 C 
HETATM  117  N   UNL     1      -1.386 -25.407   2.167  1.00  0.00    -0.254 NA
HETATM  118  C   UNL     1      -0.660 -24.651   2.933  1.00  0.00     0.209 C 
ENDBRANCH  89 113
ENDBRANCH  88  89
ENDBRANCH  82  88
ENDBRANCH  81  82
ENDBRANCH  79  81
ENDBRANCH   4  79
BRANCH   5 119
HETATM  119  O   UNL     1       4.419 -20.929  -1.409  1.00  0.00    -0.348 OA
BRANCH 119 120
HETATM  120  C   UNL     1       5.501 -20.396  -2.235  1.00  0.00     0.186 C 
HETATM  121  C   UNL     1       5.008 -19.307  -3.221  1.00  0.00     0.179 C 
HETATM  122  O   UNL     1       5.488 -17.994  -2.892  1.00  0.00    -0.349 OA
HETATM  123  C   UNL     1       6.908 -17.832  -2.816  1.00  0.00     0.296 C 
HETATM  124  C   UNL     1       7.628 -19.028  -2.107  1.00  0.00     0.303 C 
HETATM  125  C   UNL     1       6.621 -19.885  -1.308  1.00  0.00     0.187 C 
BRANCH 121 126
HETATM  126  C   UNL     1       5.390 -19.635  -4.679  1.00  0.00     0.198 C 
BRANCH 126 127
HETATM  127  O   UNL     1       4.263 -19.539  -5.544  1.00  0.00    -0.398 OA
HETATM  128  H   UNL     1       4.562 -19.739  -6.453  1.00  0.00     0.209 HD
ENDBRANCH 126 127
ENDBRANCH 121 126
BRANCH 123 129
HETATM  129  O   UNL     1       7.156 -16.615  -2.101  1.00  0.00    -0.348 OA
BRANCH 129 130
HETATM  130  C   UNL     1       7.436 -15.458  -2.907  1.00  0.00     0.186 C 
HETATM  131  C   UNL     1       7.828 -14.252  -2.019  1.00  0.00     0.176 C 
HETATM  132  O   UNL     1       8.924 -13.481  -2.573  1.00  0.00    -0.379 OA
HETATM  133  C   UNL     1       8.824 -13.267  -3.982  1.00  0.00     0.206 C 
HETATM  134  C   UNL     1       8.948 -14.591  -4.766  1.00  0.00     0.272 C 
HETATM  135  C   UNL     1       8.610 -15.798  -3.855  1.00  0.00     0.184 C 
BRANCH 131 136
HETATM  136  C   UNL     1       6.655 -13.301  -1.740  1.00  0.00     0.198 C 
BRANCH 136 137
HETATM  137  O   UNL     1       5.656 -13.972  -0.974  1.00  0.00    -0.398 OA
HETATM  138  H   UNL     1       5.059 -13.278  -0.631  1.00  0.00     0.209 HD
ENDBRANCH 136 137
ENDBRANCH 131 136
BRANCH 134 139
HETATM  139  N   UNL     1      10.277 -14.777  -5.385  1.00  0.00     0.087 N 
HETATM  140  H   UNL     1      10.654 -15.671  -5.048  1.00  0.00     0.313 HD
HETATM  141  H   UNL     1      10.939 -14.074  -5.058  1.00  0.00     0.313 HD
ENDBRANCH 134 139
BRANCH 135 142
HETATM  142  O   UNL     1       9.790 -16.179  -3.116  1.00  0.00    -0.391 OA
HETATM  143  H   UNL     1      10.560 -15.867  -3.629  1.00  0.00     0.210 HD
ENDBRANCH 135 142
ENDBRANCH 129 130
ENDBRANCH 123 129
BRANCH 124 144
HETATM  144  N   UNL     1       8.785 -18.606  -1.284  1.00  0.00     0.090 N 
HETATM  145  H   UNL     1       8.631 -17.655  -0.947  1.00  0.00     0.313 HD
HETATM  146  H   UNL     1       9.560 -18.492  -1.952  1.00  0.00     0.313 HD
ENDBRANCH 124 144
BRANCH 125 147
HETATM  147  O   UNL     1       6.110 -19.175  -0.179  1.00  0.00    -0.391 OA
HETATM  148  H   UNL     1       6.041 -19.820   0.553  1.00  0.00     0.210 HD
ENDBRANCH 125 147
ENDBRANCH 119 120
ENDBRANCH   5 119
TORSDOF 58
ENDMDL
MODEL 2
REMARK VINA RESULT:      -5.9      6.067     17.905
REMARK WARNING: 32 MAX_TORS EXCEEDED!!!
REMARK  58 active torsions:
REMARK  status: ('A' for Active; 'I' for Inactive)
REMARK    1  A    between atoms: C_1  and  O_30 
REMARK    2  A    between atoms: C_2  and  C_6 
REMARK    3  A    between atoms: C_3  and  O_9 
REMARK    4  A    between atoms: C_4  and  N_11 
REMARK    5  A    between atoms: C_5  and  O_12 
REMARK    6  A    between atoms: C_6  and  O_7 
REMARK    7  A    between atoms: N_11  and  C_118 
REMARK    8  A    between atoms: O_12  and  C_20 
REMARK    9  A    between atoms: O_14  and  C_18 
REMARK   10  A    between atoms: C_16  and  C_23 
REMARK   11  A    between atoms: O_17  and  C_23 
REMARK   12  A    between atoms: O_19  and  C_22 
REMARK   13  A    between atoms: O_19  and  C_42 
REMARK   14  A    between atoms: N_21  and  C_24 
REMARK   15  A    between atoms: O_26  and  C_29 
REMARK   16  A    between atoms: C_28  and  C_34 
REMARK   17  A    between atoms: O_30  and  C_33 
REMARK   18  A    between atoms: C_31  and  O_53 
REMARK   19  A    between atoms: N_32  and  C_35 
REMARK   20  A    between atoms: C_34  and  O_65 
REMARK   21  A    between atoms: O_37  and  C_41 
REMARK   22  A    between atoms: C_39  and  C_45 
REMARK   23  A    between atoms: O_40  and  C_45 
REMARK   24  A    between atoms: N_43  and  C_46 
REMARK   25  A    between atoms: O_48  and  C_52 
REMARK   26  A    between atoms: C_50  and  C_57 
REMARK   27  A    between atoms: O_51  and  C_57 
REMARK   28  A    between atoms: O_53  and  C_56 
REMARK   29  A    between atoms: N_55  and  C_58 
REMARK   30  A    between atoms: N_55  and  C_71 
REMARK   31  A    between atoms: C_71  and  C_73 
REMARK   32  A    between atoms: C_73  and  C_74 
REMARK   33  A    between atoms: C_73  and  N_87 
REMARK   34  A    between atoms: C_74  and  C_75 
REMARK   35  A    between atoms: C_75  and  C_76 
REMARK   36  A    between atoms: C_75  and  N_101 
REMARK   37  A    between atoms: C_76  and  C_77 
REMARK   38  A    between atoms: C_77  and  C_78 
REMARK   39  A    between atoms: C_77  and  N_91 
REMARK   40  A    between atoms: C_78  and  C_79 
REMARK   41  A    between atoms: C_79  and  C_80 
REMARK   42  A    between atoms: C_79  and  N_106 
REMARK   43  A    between atoms: C_80  and  C_81 
REMARK   44  A    between atoms: C_81  and  N_96 
REMARK   45  A    between atoms: N_113  and  C_119 
REMARK   46  A    between atoms: C_118  and  C_119 
REMARK   47  A    between atoms: C_119  and  C_126 
REMARK   48  A    between atoms: N_122  and  C_128 
REMARK   49  A    between atoms: C_124  and  C_128 
REMARK   50  A    between atoms: C_124  and  C_130 
REMARK   51  A    between atoms: N_125  and  C_135 
REMARK   52  A    between atoms: C_126  and  C_130 
REMARK   53  A    between atoms: C_128  and  C_132 
REMARK   54  A    between atoms: N_129  and  C_130 
REMARK   55  A    between atoms: C_132  and  C_137 
REMARK   56  A    between atoms: C_135  and  C_136 
REMARK   57  A    between atoms: C_136  and  C_137 
REMARK   58  A    between atoms: C_137  and  N_140 
ROOT
HETATM    1  C   UNL     1       9.716 -14.497  -7.261  1.00  0.00     0.186 C 
HETATM    2  C   UNL     1      10.113 -13.236  -6.401  1.00  0.00     0.179 C 
HETATM    3  C   UNL     1       9.142 -14.179  -8.679  1.00  0.00     0.188 C 
HETATM    4  C   UNL     1       9.693 -12.855  -9.282  1.00  0.00     0.306 C 
HETATM    5  C   UNL     1       9.287 -11.848  -8.157  1.00  0.00     0.296 C 
HETATM    6  O   UNL     1      10.225 -11.970  -7.107  1.00  0.00    -0.349 OA
ENDROOT
BRANCH   1   7
HETATM    7  O   UNL     1      10.846 -15.383  -7.364  1.00  0.00    -0.348 OA
BRANCH   7   8
HETATM    8  C   UNL     1      10.688 -16.636  -6.670  1.00  0.00     0.296 C 
HETATM    9  O   UNL     1       9.338 -16.689  -6.199  1.00  0.00    -0.349 OA
HETATM   10  C   UNL     1       8.997 -17.851  -5.414  1.00  0.00     0.179 C 
HETATM   11  C   UNL     1      10.024 -18.123  -4.291  1.00  0.00     0.186 C 
HETATM   12  C   UNL     1      10.998 -16.942  -4.155  1.00  0.00     0.187 C 
HETATM   13  C   UNL     1      11.720 -16.734  -5.494  1.00  0.00     0.303 C 
BRANCH  10  14
HETATM   14  C   UNL     1       8.799 -19.082  -6.319  1.00  0.00     0.198 C 
BRANCH  14  15
HETATM   15  O   UNL     1       9.859 -20.024  -6.173  1.00  0.00    -0.398 OA
HETATM   16  H   UNL     1      10.662 -19.528  -5.927  1.00  0.00     0.209 HD
ENDBRANCH  14  15
ENDBRANCH  10  14
BRANCH  11  17
HETATM   17  O   UNL     1       9.402 -18.308  -3.016  1.00  0.00    -0.348 OA
BRANCH  17  18
HETATM   18  C   UNL     1       9.673 -19.553  -2.382  1.00  0.00     0.296 C 
HETATM   19  O   UNL     1      10.350 -20.410  -3.295  1.00  0.00    -0.351 OA
HETATM   20  C   UNL     1      10.003 -21.803  -3.252  1.00  0.00     0.150 C 
HETATM   21  C   UNL     1       9.771 -22.280  -1.822  1.00  0.00     0.068 C 
HETATM   22  C   UNL     1       8.715 -21.445  -1.086  1.00  0.00     0.158 C 
HETATM   23  C   UNL     1       8.348 -20.112  -1.789  1.00  0.00     0.303 C 
BRANCH  20  24
HETATM   24  C   UNL     1      11.124 -22.610  -3.932  1.00  0.00     0.196 C 
BRANCH  24  25
HETATM   25  O   UNL     1      11.997 -21.727  -4.633  1.00  0.00    -0.398 OA
HETATM   26  H   UNL     1      12.896 -22.093  -4.567  1.00  0.00     0.209 HD
ENDBRANCH  24  25
ENDBRANCH  20  24
BRANCH  22  27
HETATM   27  O   UNL     1       7.536 -22.236  -0.890  1.00  0.00    -0.393 OA
HETATM   28  H   UNL     1       7.632 -22.611   0.012  1.00  0.00     0.210 HD
ENDBRANCH  22  27
BRANCH  23  29
HETATM   29  N   UNL     1       7.216 -20.374  -2.723  1.00  0.00     0.097 N 
HETATM   30  H   UNL     1       7.560 -20.163  -3.665  1.00  0.00     0.316 HD
BRANCH  29  31
HETATM   31  C   UNL     1       6.023 -19.520  -2.575  1.00  0.00     0.296 C 
BRANCH  31  32
HETATM   32  C   UNL     1       6.165 -18.276  -1.605  1.00  0.00     0.120 C 
BRANCH  32  33
HETATM   33  C   UNL     1       4.940 -18.237  -0.625  1.00  0.00     0.053 C 
BRANCH  33  34
HETATM   34  C   UNL     1       4.558 -19.489   0.262  1.00  0.00     0.094 C 
BRANCH  34  35
HETATM   35  C   UNL     1       4.721 -19.079   1.802  1.00  0.00     0.051 C 
BRANCH  35  36
HETATM   36  C   UNL     1       4.333 -20.006   3.006  1.00  0.00     0.094 C 
BRANCH  36  37
HETATM   37  C   UNL     1       4.619 -19.369   4.412  1.00  0.00     0.051 C 
BRANCH  37  38
HETATM   38  C   UNL     1       5.190 -20.341   5.491  1.00  0.00     0.094 C 
BRANCH  38  39
HETATM   39  C   UNL     1       5.875 -19.581   6.682  1.00  0.00     0.051 C 
BRANCH  39  40
HETATM   40  C   UNL     1       7.183 -20.086   7.354  1.00  0.00     0.089 C 
HETATM   41  C   UNL     1       8.162 -18.908   7.512  1.00  0.00     0.033 C 
BRANCH  40  42
HETATM   42  N   UNL     1       7.039 -20.733   8.650  1.00  0.00    -0.334 N 
HETATM   43  C   UNL     1       5.941 -21.445   9.056  1.00  0.00     0.210 A 
HETATM   44  N   UNL     1       6.102 -21.931  10.264  1.00  0.00    -0.254 NA
HETATM   45  C   UNL     1       7.356 -21.531  10.647  1.00  0.00     0.150 A 
HETATM   46  C   UNL     1       7.966 -20.800   9.652  1.00  0.00     0.082 A 
ENDBRANCH  40  42
ENDBRANCH  39  40
ENDBRANCH  38  39
BRANCH  38  47
HETATM   47  N   UNL     1       4.355 -21.480   5.843  1.00  0.00    -0.339 N 
HETATM   48  C   UNL     1       4.698 -22.801   5.738  1.00  0.00     0.209 C 
HETATM   49  N   UNL     1       3.675 -23.591   5.957  1.00  0.00    -0.254 NA
HETATM   50  C   UNL     1       2.675 -22.773   6.383  1.00  0.00     0.142 C 
HETATM   51  C   UNL     1       3.084 -21.454   6.396  1.00  0.00     0.026 C 
HETATM   52  C   UNL     1       2.358 -20.285   6.949  1.00  0.00     0.070 C 
ENDBRANCH  38  47
ENDBRANCH  37  38
ENDBRANCH  36  37
BRANCH  36  53
HETATM   53  N   UNL     1       2.914 -20.375   2.978  1.00  0.00    -0.345 N 
HETATM   54  C   UNL     1       2.404 -21.635   2.832  1.00  0.00     0.209 A 
HETATM   55  N   UNL     1       1.099 -21.645   2.989  1.00  0.00    -0.255 NA
HETATM   56  C   UNL     1       0.750 -20.353   3.258  1.00  0.00     0.135 A 
HETATM   57  C   UNL     1       1.864 -19.550   3.292  1.00  0.00     0.111 A 
ENDBRANCH  36  53
ENDBRANCH  35  36
ENDBRANCH  34  35
BRANCH  34  58
HETATM   58  N   UNL     1       3.432 -20.311  -0.201  1.00  0.00    -0.339 N 
HETATM   59  C   UNL     1       3.602 -21.518  -0.847  1.00  0.00     0.209 C 
HETATM   60  N   UNL     1       2.484 -22.063  -1.249  1.00  0.00    -0.254 NA
HETATM   61  C   UNL     1       1.541 -21.129  -0.991  1.00  0.00     0.142 C 
HETATM   62  C   UNL     1       2.104 -19.979  -0.466  1.00  0.00     0.026 C 
HETATM   63  C   UNL     1       1.388 -18.686  -0.333  1.00  0.00     0.070 C 
ENDBRANCH  34  58
ENDBRANCH  33  34
ENDBRANCH  32  33
BRANCH  32  64
HETATM   64  N   UNL     1       6.541 -17.006  -2.232  1.00  0.00    -0.344 N 
HETATM   65  C   UNL     1       6.318 -16.550  -3.506  1.00  0.00     0.111 A 
HETATM   66  C   UNL     1       6.897 -15.307  -3.581  1.00  0.00     0.135 A 
HETATM   67  N   UNL     1       7.510 -14.998  -2.408  1.00  0.00    -0.255 NA
HETATM   68  C   UNL     1       7.287 -16.026  -1.624  1.00  0.00     0.209 A 
ENDBRANCH  32  64
ENDBRANCH  31  32
ENDBRANCH  29  31
ENDBRANCH  23  29
ENDBRANCH  17  18
ENDBRANCH  11  17
BRANCH  12  69
HETATM   69  O   UNL     1      10.329 -15.738  -3.743  1.00  0.00    -0.391 OA
HETATM   70  H   UNL     1       9.860 -15.935  -2.908  1.00  0.00     0.210 HD
ENDBRANCH  12  69
BRANCH  13  71
HETATM   71  N   UNL     1      12.649 -15.590  -5.389  1.00  0.00     0.090 N 
HETATM   72  H   UNL     1      12.561 -15.256  -4.424  1.00  0.00     0.313 HD
HETATM   73  H   UNL     1      12.216 -14.838  -5.941  1.00  0.00     0.313 HD
ENDBRANCH  13  71
ENDBRANCH   7   8
ENDBRANCH   1   7
BRANCH   2  74
HETATM   74  C   UNL     1       9.114 -13.077  -5.227  1.00  0.00     0.198 C 
BRANCH  74  75
HETATM   75  O   UNL     1       8.957 -11.709  -4.871  1.00  0.00    -0.398 OA
HETATM   76  H   UNL     1       8.036 -11.575  -4.589  1.00  0.00     0.209 HD
ENDBRANCH  74  75
ENDBRANCH   2  74
BRANCH   3  77
HETATM   77  O   UNL     1       9.255 -15.289  -9.575  1.00  0.00    -0.391 OA
HETATM   78  H   UNL     1       9.553 -16.064  -9.069  1.00  0.00     0.210 HD
ENDBRANCH   3  77
BRANCH   4  79
HETATM   79  N   UNL     1      11.105 -13.106  -9.711  1.00  0.00     0.097 N 
HETATM   80  H   UNL     1      11.133 -13.909 -10.332  1.00  0.00     0.316 HD
BRANCH  79  81
HETATM   81  C   UNL     1      11.917 -11.991 -10.227  1.00  0.00     0.296 C 
BRANCH  81  82
HETATM   82  C   UNL     1      13.089 -11.439  -9.253  1.00  0.00     0.120 C 
BRANCH  82  83
HETATM   83  N   UNL     1      13.895 -12.501  -8.656  1.00  0.00    -0.344 N 
HETATM   84  C   UNL     1      14.802 -13.328  -9.268  1.00  0.00     0.111 A 
HETATM   85  C   UNL     1      15.260 -14.175  -8.284  1.00  0.00     0.135 A 
HETATM   86  N   UNL     1      14.630 -13.916  -7.100  1.00  0.00    -0.255 NA
HETATM   87  C   UNL     1      13.797 -12.936  -7.360  1.00  0.00     0.209 A 
ENDBRANCH  82  83
BRANCH  82  88
HETATM   88  C   UNL     1      13.882 -10.262  -9.933  1.00  0.00     0.053 C 
BRANCH  88  89
HETATM   89  C   UNL     1      13.646  -8.707  -9.702  1.00  0.00     0.094 C 
BRANCH  89  90
HETATM   90  C   UNL     1      14.838  -7.899  -9.007  1.00  0.00     0.051 C 
BRANCH  90  91
HETATM   91  C   UNL     1      14.523  -6.597  -8.132  1.00  0.00     0.094 C 
BRANCH  91  92
HETATM   92  N   UNL     1      14.505  -5.367  -8.934  1.00  0.00    -0.345 N 
HETATM   93  C   UNL     1      15.593  -4.662  -9.375  1.00  0.00     0.111 A 
HETATM   94  C   UNL     1      15.088  -3.475  -9.853  1.00  0.00     0.135 A 
HETATM   95  N   UNL     1      13.731  -3.433  -9.697  1.00  0.00    -0.255 NA
HETATM   96  C   UNL     1      13.404  -4.585  -9.156  1.00  0.00     0.209 A 
ENDBRANCH  91  92
BRANCH  91  97
HETATM   97  C   UNL     1      15.493  -6.342  -6.914  1.00  0.00     0.051 C 
BRANCH  97  98
HETATM   98  C   UNL     1      16.805  -7.217  -6.820  1.00  0.00     0.094 C 
BRANCH  98  99
HETATM   99  C   UNL     1      18.105  -6.306  -6.911  1.00  0.00     0.051 C 
BRANCH  99 100
HETATM  100  C   UNL     1      19.506  -6.849  -7.341  1.00  0.00     0.089 C 
HETATM  101  C   UNL     1      19.376  -7.676  -8.634  1.00  0.00     0.033 C 
BRANCH 100 102
HETATM  102  N   UNL     1      20.537  -5.843  -7.566  1.00  0.00    -0.334 N 
HETATM  103  C   UNL     1      20.857  -5.238  -8.752  1.00  0.00     0.082 A 
HETATM  104  C   UNL     1      21.886  -4.378  -8.441  1.00  0.00     0.150 A 
HETATM  105  N   UNL     1      22.223  -4.472  -7.115  1.00  0.00    -0.254 NA
HETATM  106  C   UNL     1      21.392  -5.357  -6.612  1.00  0.00     0.210 A 
ENDBRANCH 100 102
ENDBRANCH  99 100
ENDBRANCH  98  99
BRANCH  98 107
HETATM  107  N   UNL     1      16.864  -8.316  -5.865  1.00  0.00    -0.339 N 
HETATM  108  C   UNL     1      16.903  -8.221  -4.501  1.00  0.00     0.209 C 
HETATM  109  N   UNL     1      17.527  -9.245  -3.965  1.00  0.00    -0.254 NA
HETATM  110  C   UNL     1      17.648 -10.153  -4.971  1.00  0.00     0.142 C 
HETATM  111  C   UNL     1      17.109  -9.652  -6.139  1.00  0.00     0.026 C 
HETATM  112  C   UNL     1      16.752 -10.400  -7.361  1.00  0.00     0.070 C 
ENDBRANCH  98 107
ENDBRANCH  97  98
ENDBRANCH  91  97
ENDBRANCH  90  91
ENDBRANCH  89  90
BRANCH  89 113
HETATM  113  N   UNL     1      12.775  -7.994 -10.653  1.00  0.00    -0.339 N 
HETATM  114  C   UNL     1      11.512  -7.435 -10.593  1.00  0.00     0.026 C 
HETATM  115  C   UNL     1      11.307  -6.854 -11.834  1.00  0.00     0.142 C 
HETATM  116  C   UNL     1      10.538  -7.356  -9.488  1.00  0.00     0.070 C 
HETATM  117  N   UNL     1      12.442  -6.858 -12.575  1.00  0.00    -0.254 NA
HETATM  118  C   UNL     1      13.306  -7.461 -11.817  1.00  0.00     0.209 C 
ENDBRANCH  89 113
ENDBRANCH  88  89
ENDBRANCH  82  88
ENDBRANCH  81  82
ENDBRANCH  79  81
ENDBRANCH   4  79
BRANCH   5 119
HETATM  119  O   UNL     1       9.076 -10.513  -8.642  1.00  0.00    -0.348 OA
BRANCH 119 120
HETATM  120  C   UNL     1       7.824  -9.931  -8.162  1.00  0.00     0.186 C 
HETATM  121  C   UNL     1       6.862 -10.998  -7.582  1.00  0.00     0.179 C 
HETATM  122  O   UNL     1       6.700 -10.894  -6.158  1.00  0.00    -0.349 OA
HETATM  123  C   UNL     1       6.230  -9.638  -5.658  1.00  0.00     0.296 C 
HETATM  124  C   UNL     1       6.885  -8.407  -6.370  1.00  0.00     0.303 C 
HETATM  125  C   UNL     1       8.157  -8.825  -7.140  1.00  0.00     0.187 C 
BRANCH 121 126
HETATM  126  C   UNL     1       5.474 -10.947  -8.254  1.00  0.00     0.198 C 
BRANCH 126 127
HETATM  127  O   UNL     1       5.427  -9.953  -9.272  1.00  0.00    -0.398 OA
HETATM  128  H   UNL     1       6.161 -10.123  -9.895  1.00  0.00     0.209 HD
ENDBRANCH 126 127
ENDBRANCH 121 126
BRANCH 123 129
HETATM  129  O   UNL     1       6.524  -9.607  -4.255  1.00  0.00    -0.348 OA
BRANCH 129 130
HETATM  130  C   UNL     1       5.425  -9.906  -3.377  1.00  0.00     0.186 C 
HETATM  131  C   UNL     1       5.920 -10.086  -1.921  1.00  0.00     0.176 C 
HETATM  132  O   UNL     1       5.033  -9.476  -0.949  1.00  0.00    -0.379 OA
HETATM  133  C   UNL     1       3.647  -9.697  -1.214  1.00  0.00     0.206 C 
HETATM  134  C   UNL     1       3.203  -9.002  -2.519  1.00  0.00     0.272 C 
HETATM  135  C   UNL     1       4.422  -8.729  -3.435  1.00  0.00     0.184 C 
BRANCH 131 136
HETATM  136  C   UNL     1       6.132 -11.556  -1.532  1.00  0.00     0.198 C 
BRANCH 136 137
HETATM  137  O   UNL     1       5.570 -12.409  -2.529  1.00  0.00    -0.398 OA
HETATM  138  H   UNL     1       4.601 -12.371  -2.411  1.00  0.00     0.209 HD
ENDBRANCH 136 137
ENDBRANCH 131 136
BRANCH 134 139
HETATM  139  N   UNL     1       2.453  -7.750  -2.283  1.00  0.00     0.087 N 
HETATM  140  H   UNL     1       1.931  -7.862  -1.405  1.00  0.00     0.313 HD
HETATM  141  H   UNL     1       1.738  -7.607  -2.995  1.00  0.00     0.313 HD
ENDBRANCH 134 139
BRANCH 135 142
HETATM  142  O   UNL     1       5.044  -7.488  -3.039  1.00  0.00    -0.391 OA
HETATM  143  H   UNL     1       4.427  -6.771  -3.283  1.00  0.00     0.210 HD
ENDBRANCH 135 142
ENDBRANCH 129 130
ENDBRANCH 123 129
BRANCH 124 144
HETATM  144  N   UNL     1       7.130  -7.267  -5.456  1.00  0.00     0.090 N 
HETATM  145  H   UNL     1       7.743  -6.592  -5.913  1.00  0.00     0.313 HD
HETATM  146  H   UNL     1       7.726  -7.650  -4.707  1.00  0.00     0.313 HD
ENDBRANCH 124 144
BRANCH 125 147
HETATM  147  O   UNL     1       9.207  -9.205  -6.250  1.00  0.00    -0.391 OA
HETATM  148  H   UNL     1       8.854  -9.116  -5.343  1.00  0.00     0.210 HD
ENDBRANCH 125 147
ENDBRANCH 119 120
ENDBRANCH   5 119
TORSDOF 58
ENDMDL
MODEL 3
REMARK VINA RESULT:      -5.7      5.479     12.717
REMARK WARNING: 32 MAX_TORS EXCEEDED!!!
REMARK  58 active torsions:
REMARK  status: ('A' for Active; 'I' for Inactive)
REMARK    1  A    between atoms: C_1  and  O_30 
REMARK    2  A    between atoms: C_2  and  C_6 
REMARK    3  A    between atoms: C_3  and  O_9 
REMARK    4  A    between atoms: C_4  and  N_11 
REMARK    5  A    between atoms: C_5  and  O_12 
REMARK    6  A    between atoms: C_6  and  O_7 
REMARK    7  A    between atoms: N_11  and  C_118 
REMARK    8  A    between atoms: O_12  and  C_20 
REMARK    9  A    between atoms: O_14  and  C_18 
REMARK   10  A    between atoms: C_16  and  C_23 
REMARK   11  A    between atoms: O_17  and  C_23 
REMARK   12  A    between atoms: O_19  and  C_22 
REMARK   13  A    between atoms: O_19  and  C_42 
REMARK   14  A    between atoms: N_21  and  C_24 
REMARK   15  A    between atoms: O_26  and  C_29 
REMARK   16  A    between atoms: C_28  and  C_34 
REMARK   17  A    between atoms: O_30  and  C_33 
REMARK   18  A    between atoms: C_31  and  O_53 
REMARK   19  A    between atoms: N_32  and  C_35 
REMARK   20  A    between atoms: C_34  and  O_65 
REMARK   21  A    between atoms: O_37  and  C_41 
REMARK   22  A    between atoms: C_39  and  C_45 
REMARK   23  A    between atoms: O_40  and  C_45 
REMARK   24  A    between atoms: N_43  and  C_46 
REMARK   25  A    between atoms: O_48  and  C_52 
REMARK   26  A    between atoms: C_50  and  C_57 
REMARK   27  A    between atoms: O_51  and  C_57 
REMARK   28  A    between atoms: O_53  and  C_56 
REMARK   29  A    between atoms: N_55  and  C_58 
REMARK   30  A    between atoms: N_55  and  C_71 
REMARK   31  A    between atoms: C_71  and  C_73 
REMARK   32  A    between atoms: C_73  and  C_74 
REMARK   33  A    between atoms: C_73  and  N_87 
REMARK   34  A    between atoms: C_74  and  C_75 
REMARK   35  A    between atoms: C_75  and  C_76 
REMARK   36  A    between atoms: C_75  and  N_101 
REMARK   37  A    between atoms: C_76  and  C_77 
REMARK   38  A    between atoms: C_77  and  C_78 
REMARK   39  A    between atoms: C_77  and  N_91 
REMARK   40  A    between atoms: C_78  and  C_79 
REMARK   41  A    between atoms: C_79  and  C_80 
REMARK   42  A    between atoms: C_79  and  N_106 
REMARK   43  A    between atoms: C_80  and  C_81 
REMARK   44  A    between atoms: C_81  and  N_96 
REMARK   45  A    between atoms: N_113  and  C_119 
REMARK   46  A    between atoms: C_118  and  C_119 
REMARK   47  A    between atoms: C_119  and  C_126 
REMARK   48  A    between atoms: N_122  and  C_128 
REMARK   49  A    between atoms: C_124  and  C_128 
REMARK   50  A    between atoms: C_124  and  C_130 
REMARK   51  A    between atoms: N_125  and  C_135 
REMARK   52  A    between atoms: C_126  and  C_130 
REMARK   53  A    between atoms: C_128  and  C_132 
REMARK   54  A    between atoms: N_129  and  C_130 
REMARK   55  A    between atoms: C_132  and  C_137 
REMARK   56  A    between atoms: C_135  and  C_136 
REMARK   57  A    between atoms: C_136  and  C_137 
REMARK   58  A    between atoms: C_137  and  N_140 
ROOT
HETATM    1  C   UNL     1       0.714  -8.893  -0.545  1.00  0.00     0.186 C 
HETATM    2  C   UNL     1      -0.553  -9.612  -1.151  1.00  0.00     0.179 C 
HETATM    3  C   UNL     1       1.616  -9.791   0.361  1.00  0.00     0.188 C 
HETATM    4  C   UNL     1       1.575 -11.296  -0.031  1.00  0.00     0.306 C 
HETATM    5  C   UNL     1       0.040 -11.569   0.076  1.00  0.00     0.296 C 
HETATM    6  O   UNL     1      -0.573 -11.064  -1.092  1.00  0.00    -0.349 OA
ENDROOT
BRANCH   1   7
HETATM    7  O   UNL     1       1.492  -8.313  -1.609  1.00  0.00    -0.348 OA
BRANCH   7   8
HETATM    8  C   UNL     1       1.478  -6.872  -1.641  1.00  0.00     0.296 C 
HETATM    9  O   UNL     1       0.652  -6.434  -0.558  1.00  0.00    -0.349 OA
HETATM   10  C   UNL     1       0.457  -5.008  -0.461  1.00  0.00     0.179 C 
HETATM   11  C   UNL     1       0.042  -4.377  -1.809  1.00  0.00     0.186 C 
HETATM   12  C   UNL     1      -0.293  -5.472  -2.835  1.00  0.00     0.187 C 
HETATM   13  C   UNL     1       0.939  -6.371  -3.025  1.00  0.00     0.303 C 
BRANCH  10  14
HETATM   14  C   UNL     1       1.706  -4.326   0.129  1.00  0.00     0.198 C 
BRANCH  14  15
HETATM   15  O   UNL     1       1.899  -3.018  -0.404  1.00  0.00    -0.398 OA
HETATM   16  H   UNL     1       2.815  -2.750  -0.202  1.00  0.00     0.209 HD
ENDBRANCH  14  15
ENDBRANCH  10  14
BRANCH  11  17
HETATM   17  O   UNL     1      -1.113  -3.543  -1.689  1.00  0.00    -0.348 OA
BRANCH  17  18
HETATM   18  C   UNL     1      -1.119  -2.389  -2.521  1.00  0.00     0.296 C 
HETATM   19  O   UNL     1       0.146  -1.740  -2.436  1.00  0.00    -0.351 OA
HETATM   20  C   UNL     1       0.136  -0.303  -2.447  1.00  0.00     0.150 C 
HETATM   21  C   UNL     1      -0.914   0.245  -3.408  1.00  0.00     0.068 C 
HETATM   22  C   UNL     1      -2.320  -0.295  -3.115  1.00  0.00     0.158 C 
HETATM   23  C   UNL     1      -2.352  -1.513  -2.156  1.00  0.00     0.303 C 
BRANCH  20  24
HETATM   24  C   UNL     1       1.544   0.195  -2.821  1.00  0.00     0.196 C 
BRANCH  24  25
HETATM   25  O   UNL     1       2.264   0.539  -1.638  1.00  0.00    -0.398 OA
HETATM   26  H   UNL     1       2.745   1.364  -1.820  1.00  0.00     0.209 HD
ENDBRANCH  24  25
ENDBRANCH  20  24
BRANCH  22  27
HETATM   27  O   UNL     1      -3.135   0.762  -2.592  1.00  0.00    -0.393 OA
HETATM   28  H   UNL     1      -2.578   1.567  -2.662  1.00  0.00     0.210 HD
ENDBRANCH  22  27
BRANCH  23  29
HETATM   29  N   UNL     1      -2.462  -1.004  -0.758  1.00  0.00     0.097 N 
HETATM   30  H   UNL     1      -1.872  -1.609  -0.180  1.00  0.00     0.316 HD
BRANCH  29  31
HETATM   31  C   UNL     1      -3.791  -1.084  -0.126  1.00  0.00     0.296 C 
BRANCH  31  32
HETATM   32  C   UNL     1      -4.042  -0.123   1.108  1.00  0.00     0.120 C 
BRANCH  32  33
HETATM   33  C   UNL     1      -2.785   0.794   1.318  1.00  0.00     0.053 C 
BRANCH  33  34
HETATM   34  C   UNL     1      -2.696   2.229   0.659  1.00  0.00     0.094 C 
BRANCH  34  35
HETATM   35  C   UNL     1      -3.376   3.280   1.659  1.00  0.00     0.051 C 
BRANCH  35  36
HETATM   36  C   UNL     1      -3.292   3.190   3.222  1.00  0.00     0.094 C 
BRANCH  36  37
HETATM   37  C   UNL     1      -2.922   4.549   3.915  1.00  0.00     0.051 C 
BRANCH  37  38
HETATM   38  C   UNL     1      -3.314   5.837   3.130  1.00  0.00     0.094 C 
BRANCH  38  39
HETATM   39  C   UNL     1      -4.794   6.285   3.409  1.00  0.00     0.051 C 
BRANCH  39  40
HETATM   40  C   UNL     1      -5.464   6.132   4.803  1.00  0.00     0.089 C 
HETATM   41  C   UNL     1      -5.541   7.510   5.485  1.00  0.00     0.033 C 
BRANCH  40  42
HETATM   42  N   UNL     1      -6.794   5.542   4.822  1.00  0.00    -0.334 N 
HETATM   43  C   UNL     1      -7.417   5.041   5.935  1.00  0.00     0.210 A 
HETATM   44  N   UNL     1      -8.618   4.593   5.655  1.00  0.00    -0.254 NA
HETATM   45  C   UNL     1      -8.782   4.825   4.314  1.00  0.00     0.150 A 
HETATM   46  C   UNL     1      -7.669   5.432   3.777  1.00  0.00     0.082 A 
ENDBRANCH  40  42
ENDBRANCH  39  40
ENDBRANCH  38  39
BRANCH  38  47
HETATM   47  N   UNL     1      -2.315   6.895   3.082  1.00  0.00    -0.339 N 
HETATM   48  C   UNL     1      -2.167   7.912   3.987  1.00  0.00     0.209 C 
HETATM   49  N   UNL     1      -1.301   8.808   3.578  1.00  0.00    -0.254 NA
HETATM   50  C   UNL     1      -0.741   8.280   2.456  1.00  0.00     0.142 C 
HETATM   51  C   UNL     1      -1.296   7.051   2.156  1.00  0.00     0.026 C 
HETATM   52  C   UNL     1      -0.851   6.083   1.123  1.00  0.00     0.070 C 
ENDBRANCH  38  47
ENDBRANCH  37  38
ENDBRANCH  36  37
BRANCH  36  53
HETATM   53  N   UNL     1      -4.554   2.732   3.813  1.00  0.00    -0.345 N 
HETATM   54  C   UNL     1      -5.711   2.449   3.143  1.00  0.00     0.209 A 
HETATM   55  N   UNL     1      -6.615   1.930   3.944  1.00  0.00    -0.255 NA
HETATM   56  C   UNL     1      -6.022   1.862   5.172  1.00  0.00     0.135 A 
HETATM   57  C   UNL     1      -4.730   2.322   5.110  1.00  0.00     0.111 A 
ENDBRANCH  36  53
ENDBRANCH  35  36
ENDBRANCH  34  35
BRANCH  34  58
HETATM   58  N   UNL     1      -1.462   2.547  -0.071  1.00  0.00    -0.339 N 
HETATM   59  C   UNL     1      -0.207   2.407   0.485  1.00  0.00     0.209 C 
HETATM   60  N   UNL     1       0.762   2.812  -0.293  1.00  0.00    -0.254 NA
HETATM   61  C   UNL     1       0.135   3.373  -1.351  1.00  0.00     0.142 C 
HETATM   62  C   UNL     1      -1.240   3.348  -1.190  1.00  0.00     0.026 C 
HETATM   63  C   UNL     1      -2.191   4.118  -2.029  1.00  0.00     0.070 C 
ENDBRANCH  34  58
ENDBRANCH  33  34
ENDBRANCH  32  33
BRANCH  32  64
HETATM   64  N   UNL     1      -4.606  -0.745   2.309  1.00  0.00    -0.344 N 
HETATM   65  C   UNL     1      -4.075  -0.877   3.566  1.00  0.00     0.111 A 
HETATM   66  C   UNL     1      -5.006  -1.558   4.312  1.00  0.00     0.135 A 
HETATM   67  N   UNL     1      -6.076  -1.890   3.544  1.00  0.00    -0.255 NA
HETATM   68  C   UNL     1      -5.812  -1.399   2.356  1.00  0.00     0.209 A 
ENDBRANCH  32  64
ENDBRANCH  31  32
ENDBRANCH  29  31
ENDBRANCH  23  29
ENDBRANCH  17  18
ENDBRANCH  11  17
BRANCH  12  69
HETATM   69  O   UNL     1      -1.435  -6.250  -2.438  1.00  0.00    -0.391 OA
HETATM   70  H   UNL     1      -1.602  -6.064  -1.492  1.00  0.00     0.210 HD
ENDBRANCH  12  69
BRANCH  13  71
HETATM   71  N   UNL     1       0.631  -7.441  -3.995  1.00  0.00     0.090 N 
HETATM   72  H   UNL     1       1.538  -7.834  -4.265  1.00  0.00     0.313 HD
HETATM   73  H   UNL     1       0.321  -6.954  -4.847  1.00  0.00     0.313 HD
ENDBRANCH  13  71
ENDBRANCH   7   8
ENDBRANCH   1   7
BRANCH   2  74
HETATM   74  C   UNL     1      -1.832  -9.056  -0.477  1.00  0.00     0.198 C 
BRANCH  74  75
HETATM   75  O   UNL     1      -1.549  -7.869   0.255  1.00  0.00    -0.398 OA
HETATM   76  H   UNL     1      -1.006  -7.290  -0.308  1.00  0.00     0.209 HD
ENDBRANCH  74  75
ENDBRANCH   2  74
BRANCH   3  77
HETATM   77  O   UNL     1       2.948  -9.283   0.482  1.00  0.00    -0.391 OA
HETATM   78  H   UNL     1       2.968  -8.383   0.112  1.00  0.00     0.210 HD
ENDBRANCH   3  77
BRANCH   4  79
HETATM   79  N   UNL     1       2.368 -11.458  -1.290  1.00  0.00     0.097 N 
HETATM   80  H   UNL     1       2.207 -10.659  -1.897  1.00  0.00     0.316 HD
BRANCH  79  81
HETATM   81  C   UNL     1       3.799 -11.800  -1.210  1.00  0.00     0.296 C 
BRANCH  81  82
HETATM   82  C   UNL     1       4.697 -11.464  -2.516  1.00  0.00     0.120 C 
BRANCH  82  83
HETATM   83  N   UNL     1       4.563 -10.082  -2.972  1.00  0.00    -0.344 N 
HETATM   84  C   UNL     1       5.055  -8.941  -2.390  1.00  0.00     0.111 A 
HETATM   85  C   UNL     1       4.624  -7.902  -3.184  1.00  0.00     0.135 A 
HETATM   86  N   UNL     1       3.851  -8.370  -4.208  1.00  0.00    -0.255 NA
HETATM   87  C   UNL     1       3.804  -9.670  -4.037  1.00  0.00     0.209 A 
ENDBRANCH  82  83
BRANCH  82  88
HETATM   88  C   UNL     1       6.167 -12.000  -2.345  1.00  0.00     0.053 C 
BRANCH  88  89
HETATM   89  C   UNL     1       7.347 -11.872  -3.402  1.00  0.00     0.094 C 
BRANCH  89  90
HETATM   90  C   UNL     1       8.709 -12.631  -3.048  1.00  0.00     0.051 C 
BRANCH  90  91
HETATM   91  C   UNL     1       8.982 -14.100  -3.620  1.00  0.00     0.094 C 
BRANCH  91  92
HETATM   92  N   UNL     1       9.276 -14.103  -5.058  1.00  0.00    -0.345 N 
HETATM   93  C   UNL     1       9.918 -13.119  -5.763  1.00  0.00     0.111 A 
HETATM   94  C   UNL     1       9.735 -13.443  -7.087  1.00  0.00     0.135 A 
HETATM   95  N   UNL     1       8.986 -14.580  -7.205  1.00  0.00    -0.255 NA
HETATM   96  C   UNL     1       8.734 -14.964  -5.974  1.00  0.00     0.209 A 
ENDBRANCH  91  92
BRANCH  91  97
HETATM   97  C   UNL     1       7.830 -15.151  -3.379  1.00  0.00     0.051 C 
BRANCH  97  98
HETATM   98  C   UNL     1       7.924 -16.068  -2.097  1.00  0.00     0.094 C 
BRANCH  98  99
HETATM   99  C   UNL     1       6.571 -16.022  -1.262  1.00  0.00     0.051 C 
BRANCH  99 100
HETATM  100  C   UNL     1       5.350 -16.951  -1.554  1.00  0.00     0.089 C 
HETATM  101  C   UNL     1       4.901 -16.786  -3.019  1.00  0.00     0.033 C 
BRANCH 100 102
HETATM  102  N   UNL     1       5.561 -18.374  -1.319  1.00  0.00    -0.334 N 
HETATM  103  C   UNL     1       5.984 -18.967  -0.160  1.00  0.00     0.082 A 
HETATM  104  C   UNL     1       6.025 -20.313  -0.449  1.00  0.00     0.150 A 
HETATM  105  N   UNL     1       5.679 -20.547  -1.754  1.00  0.00    -0.254 NA
HETATM  106  C   UNL     1       5.401 -19.364  -2.253  1.00  0.00     0.210 A 
ENDBRANCH 100 102
ENDBRANCH  99 100
ENDBRANCH  98  99
BRANCH  98 107
HETATM  107  N   UNL     1       8.565 -17.373  -2.197  1.00  0.00    -0.339 N 
HETATM  108  C   UNL     1       9.324 -17.994  -1.244  1.00  0.00     0.209 C 
HETATM  109  N   UNL     1      10.209 -18.801  -1.784  1.00  0.00    -0.254 NA
HETATM  110  C   UNL     1       9.835 -18.917  -3.086  1.00  0.00     0.142 C 
HETATM  111  C   UNL     1       8.719 -18.145  -3.338  1.00  0.00     0.026 C 
HETATM  112  C   UNL     1       7.816 -18.217  -4.504  1.00  0.00     0.070 C 
ENDBRANCH  98 107
ENDBRANCH  97  98
ENDBRANCH  91  97
ENDBRANCH  90  91
ENDBRANCH  89  90
BRANCH  89 113
HETATM  113  N   UNL     1       6.984 -11.704  -4.821  1.00  0.00    -0.339 N 
HETATM  114  C   UNL     1       6.171 -12.382  -5.709  1.00  0.00     0.026 C 
HETATM  115  C   UNL     1       6.224 -11.653  -6.887  1.00  0.00     0.142 C 
HETATM  116  C   UNL     1       5.337 -13.586  -5.535  1.00  0.00     0.070 C 
HETATM  117  N   UNL     1       6.861 -10.471  -6.707  1.00  0.00    -0.254 NA
HETATM  118  C   UNL     1       7.221 -10.497  -5.461  1.00  0.00     0.209 C 
ENDBRANCH  89 113
ENDBRANCH  88  89
ENDBRANCH  82  88
ENDBRANCH  81  82
ENDBRANCH  79  81
ENDBRANCH   4  79
BRANCH   5 119
HETATM  119  O   UNL     1      -0.271 -12.935   0.393  1.00  0.00    -0.348 OA
BRANCH 119 120
HETATM  120  C   UNL     1      -0.422 -13.769  -0.798  1.00  0.00     0.186 C 
HETATM  121  C   UNL     1       0.848 -14.604  -1.097  1.00  0.00     0.179 C 
HETATM  122  O   UNL     1       0.658 -16.012  -0.883  1.00  0.00    -0.349 OA
HETATM  123  C   UNL     1      -0.397 -16.636  -1.622  1.00  0.00     0.296 C 
HETATM  124  C   UNL     1      -1.698 -15.766  -1.691  1.00  0.00     0.303 C 
HETATM  125  C   UNL     1      -1.676 -14.650  -0.624  1.00  0.00     0.187 C 
BRANCH 121 126
HETATM  126  C   UNL     1       1.361 -14.376  -2.535  1.00  0.00     0.198 C 
BRANCH 126 127
HETATM  127  O   UNL     1       0.817 -13.186  -3.096  1.00  0.00    -0.398 OA
HETATM  128  H   UNL     1      -0.088 -13.072  -2.744  1.00  0.00     0.209 HD
ENDBRANCH 126 127
ENDBRANCH 121 126
BRANCH 123 129
HETATM  129  O   UNL     1      -0.677 -17.888  -0.982  1.00  0.00    -0.348 OA
BRANCH 129 130
HETATM  130  C   UNL     1       0.415 -18.481  -0.258  1.00  0.00     0.186 C 
HETATM  131  C   UNL     1      -0.088 -19.139   1.050  1.00  0.00     0.176 C 
HETATM  132  O   UNL     1       0.550 -20.414   1.316  1.00  0.00    -0.379 OA
HETATM  133  C   UNL     1       1.957 -20.418   1.065  1.00  0.00     0.206 C 
HETATM  134  C   UNL     1       2.264 -20.225  -0.436  1.00  0.00     0.272 C 
HETATM  135  C   UNL     1       1.065 -19.559  -1.157  1.00  0.00     0.184 C 
BRANCH 131 136
HETATM  136  C   UNL     1       0.084 -18.241   2.283  1.00  0.00     0.198 C 
BRANCH 136 137
HETATM  137  O   UNL     1       0.084 -16.869   1.890  1.00  0.00    -0.398 OA
HETATM  138  H   UNL     1      -0.715 -16.469   2.286  1.00  0.00     0.209 HD
ENDBRANCH 136 137
ENDBRANCH 131 136
BRANCH 134 139
HETATM  139  N   UNL     1       2.636 -21.482  -1.119  1.00  0.00     0.087 N 
HETATM  140  H   UNL     1       2.343 -22.261  -0.515  1.00  0.00     0.313 HD
HETATM  141  H   UNL     1       3.647 -21.576  -1.196  1.00  0.00     0.313 HD
ENDBRANCH 134 139
BRANCH 135 142
HETATM  142  O   UNL     1       0.112 -20.578  -1.530  1.00  0.00    -0.391 OA
HETATM  143  H   UNL     1       0.588 -21.431  -1.515  1.00  0.00     0.210 HD
ENDBRANCH 135 142
ENDBRANCH 129 130
ENDBRANCH 123 129
BRANCH 124 144
HETATM  144  N   UNL     1      -2.940 -16.572  -1.638  1.00  0.00     0.090 N 
HETATM  145  H   UNL     1      -3.272 -16.743  -2.587  1.00  0.00     0.313 HD
HETATM  146  H   UNL     1      -3.654 -15.936  -1.255  1.00  0.00     0.313 HD
ENDBRANCH 124 144
BRANCH 125 147
HETATM  147  O   UNL     1      -1.786 -15.186   0.695  1.00  0.00    -0.391 OA
HETATM  148  H   UNL     1      -1.064 -15.837   0.798  1.00  0.00     0.210 HD
ENDBRANCH 125 147
ENDBRANCH 119 120
ENDBRANCH   5 119
TORSDOF 58
ENDMDL
MODEL 4
REMARK VINA RESULT:      -5.7      1.828      4.752
REMARK WARNING: 32 MAX_TORS EXCEEDED!!!
REMARK  58 active torsions:
REMARK  status: ('A' for Active; 'I' for Inactive)
REMARK    1  A    between atoms: C_1  and  O_30 
REMARK    2  A    between atoms: C_2  and  C_6 
REMARK    3  A    between atoms: C_3  and  O_9 
REMARK    4  A    between atoms: C_4  and  N_11 
REMARK    5  A    between atoms: C_5  and  O_12 
REMARK    6  A    between atoms: C_6  and  O_7 
REMARK    7  A    between atoms: N_11  and  C_118 
REMARK    8  A    between atoms: O_12  and  C_20 
REMARK    9  A    between atoms: O_14  and  C_18 
REMARK   10  A    between atoms: C_16  and  C_23 
REMARK   11  A    between atoms: O_17  and  C_23 
REMARK   12  A    between atoms: O_19  and  C_22 
REMARK   13  A    between atoms: O_19  and  C_42 
REMARK   14  A    between atoms: N_21  and  C_24 
REMARK   15  A    between atoms: O_26  and  C_29 
REMARK   16  A    between atoms: C_28  and  C_34 
REMARK   17  A    between atoms: O_30  and  C_33 
REMARK   18  A    between atoms: C_31  and  O_53 
REMARK   19  A    between atoms: N_32  and  C_35 
REMARK   20  A    between atoms: C_34  and  O_65 
REMARK   21  A    between atoms: O_37  and  C_41 
REMARK   22  A    between atoms: C_39  and  C_45 
REMARK   23  A    between atoms: O_40  and  C_45 
REMARK   24  A    between atoms: N_43  and  C_46 
REMARK   25  A    between atoms: O_48  and  C_52 
REMARK   26  A    between atoms: C_50  and  C_57 
REMARK   27  A    between atoms: O_51  and  C_57 
REMARK   28  A    between atoms: O_53  and  C_56 
REMARK   29  A    between atoms: N_55  and  C_58 
REMARK   30  A    between atoms: N_55  and  C_71 
REMARK   31  A    between atoms: C_71  and  C_73 
REMARK   32  A    between atoms: C_73  and  C_74 
REMARK   33  A    between atoms: C_73  and  N_87 
REMARK   34  A    between atoms: C_74  and  C_75 
REMARK   35  A    between atoms: C_75  and  C_76 
REMARK   36  A    between atoms: C_75  and  N_101 
REMARK   37  A    between atoms: C_76  and  C_77 
REMARK   38  A    between atoms: C_77  and  C_78 
REMARK   39  A    between atoms: C_77  and  N_91 
REMARK   40  A    between atoms: C_78  and  C_79 
REMARK   41  A    between atoms: C_79  and  C_80 
REMARK   42  A    between atoms: C_79  and  N_106 
REMARK   43  A    between atoms: C_80  and  C_81 
REMARK   44  A    between atoms: C_81  and  N_96 
REMARK   45  A    between atoms: N_113  and  C_119 
REMARK   46  A    between atoms: C_118  and  C_119 
REMARK   47  A    between atoms: C_119  and  C_126 
REMARK   48  A    between atoms: N_122  and  C_128 
REMARK   49  A    between atoms: C_124  and  C_128 
REMARK   50  A    between atoms: C_124  and  C_130 
REMARK   51  A    between atoms: N_125  and  C_135 
REMARK   52  A    between atoms: C_126  and  C_130 
REMARK   53  A    between atoms: C_128  and  C_132 
REMARK   54  A    between atoms: N_129  and  C_130 
REMARK   55  A    between atoms: C_132  and  C_137 
REMARK   56  A    between atoms: C_135  and  C_136 
REMARK   57  A    between atoms: C_136  and  C_137 
REMARK   58  A    between atoms: C_137  and  N_140 
ROOT
HETATM    1  C   UNL     1       2.212 -19.955  -0.666  1.00  0.00     0.186 C 
HETATM    2  C   UNL     1       3.472 -19.186  -0.111  1.00  0.00     0.179 C 
HETATM    3  C   UNL     1       2.499 -21.388  -1.217  1.00  0.00     0.188 C 
HETATM    4  C   UNL     1       3.704 -22.084  -0.522  1.00  0.00     0.306 C 
HETATM    5  C   UNL     1       4.826 -21.029  -0.790  1.00  0.00     0.296 C 
HETATM    6  O   UNL     1       4.664 -19.978   0.141  1.00  0.00    -0.349 OA
ENDROOT
BRANCH   1   7
HETATM    7  O   UNL     1       1.192 -20.004   0.350  1.00  0.00    -0.348 OA
BRANCH   7   8
HETATM    8  C   UNL     1      -0.015 -19.288   0.020  1.00  0.00     0.296 C 
HETATM    9  O   UNL     1       0.097 -18.882  -1.347  1.00  0.00    -0.349 OA
HETATM   10  C   UNL     1      -0.995 -18.086  -1.852  1.00  0.00     0.179 C 
HETATM   11  C   UNL     1      -1.347 -16.908  -0.916  1.00  0.00     0.186 C 
HETATM   12  C   UNL     1      -0.278 -16.754   0.178  1.00  0.00     0.187 C 
HETATM   13  C   UNL     1      -0.191 -18.061   0.980  1.00  0.00     0.303 C 
BRANCH  10  14
HETATM   14  C   UNL     1      -2.223 -18.969  -2.146  1.00  0.00     0.198 C 
BRANCH  14  15
HETATM   15  O   UNL     1      -2.985 -18.471  -3.243  1.00  0.00    -0.398 OA
HETATM   16  H   UNL     1      -3.331 -19.240  -3.734  1.00  0.00     0.209 HD
ENDBRANCH  14  15
ENDBRANCH  10  14
BRANCH  11  17
HETATM   17  O   UNL     1      -1.423 -15.661  -1.611  1.00  0.00    -0.348 OA
BRANCH  17  18
HETATM   18  C   UNL     1      -2.740 -15.183  -1.860  1.00  0.00     0.296 C 
HETATM   19  O   UNL     1      -3.135 -15.555  -3.177  1.00  0.00    -0.351 OA
HETATM   20  C   UNL     1      -3.915 -14.598  -3.911  1.00  0.00     0.150 C 
HETATM   21  C   UNL     1      -4.917 -13.880  -3.012  1.00  0.00     0.068 C 
HETATM   22  C   UNL     1      -4.249 -13.209  -1.805  1.00  0.00     0.158 C 
HETATM   23  C   UNL     1      -2.787 -13.660  -1.547  1.00  0.00     0.303 C 
BRANCH  20  24
HETATM   24  C   UNL     1      -4.627 -15.326  -5.065  1.00  0.00     0.196 C 
BRANCH  24  25
HETATM   25  O   UNL     1      -4.087 -16.638  -5.214  1.00  0.00    -0.398 OA
HETATM   26  H   UNL     1      -4.474 -17.022  -6.019  1.00  0.00     0.209 HD
ENDBRANCH  24  25
ENDBRANCH  20  24
BRANCH  22  27
HETATM   27  O   UNL     1      -4.302 -11.785  -1.963  1.00  0.00    -0.393 OA
HETATM   28  H   UNL     1      -3.372 -11.515  -2.121  1.00  0.00     0.210 HD
ENDBRANCH  22  27
BRANCH  23  29
HETATM   29  N   UNL     1      -1.879 -12.757  -2.311  1.00  0.00     0.097 N 
HETATM   30  H   UNL     1      -1.488 -13.315  -3.075  1.00  0.00     0.316 HD
BRANCH  29  31
HETATM   31  C   UNL     1      -0.697 -12.245  -1.595  1.00  0.00     0.296 C 
BRANCH  31  32
HETATM   32  C   UNL     1       0.582 -11.940  -2.478  1.00  0.00     0.120 C 
BRANCH  32  33
HETATM   33  C   UNL     1       0.133 -11.331  -3.853  1.00  0.00     0.053 C 
BRANCH  33  34
HETATM   34  C   UNL     1       0.488  -9.840  -4.245  1.00  0.00     0.094 C 
BRANCH  34  35
HETATM   35  C   UNL     1       0.565  -8.975  -2.899  1.00  0.00     0.051 C 
BRANCH  35  36
HETATM   36  C   UNL     1       1.859  -8.248  -2.392  1.00  0.00     0.094 C 
BRANCH  36  37
HETATM   37  C   UNL     1       1.571  -6.939  -1.575  1.00  0.00     0.051 C 
BRANCH  37  38
HETATM   38  C   UNL     1       1.207  -5.680  -2.421  1.00  0.00     0.094 C 
BRANCH  38  39
HETATM   39  C   UNL     1      -0.335  -5.563  -2.692  1.00  0.00     0.051 C 
BRANCH  39  40
HETATM   40  C   UNL     1      -1.395  -5.702  -1.564  1.00  0.00     0.089 C 
HETATM   41  C   UNL     1      -2.538  -4.701  -1.812  1.00  0.00     0.033 C 
BRANCH  40  42
HETATM   42  N   UNL     1      -1.980  -7.022  -1.383  1.00  0.00    -0.334 N 
HETATM   43  C   UNL     1      -2.748  -7.677  -2.310  1.00  0.00     0.210 A 
HETATM   44  N   UNL     1      -3.119  -8.860  -1.879  1.00  0.00    -0.254 NA
HETATM   45  C   UNL     1      -2.560  -8.979  -0.634  1.00  0.00     0.150 A 
HETATM   46  C   UNL     1      -1.830  -7.857  -0.310  1.00  0.00     0.082 A 
ENDBRANCH  40  42
ENDBRANCH  39  40
ENDBRANCH  38  39
BRANCH  38  47
HETATM   47  N   UNL     1       1.901  -4.448  -2.077  1.00  0.00    -0.339 N 
HETATM   48  C   UNL     1       1.810  -3.771  -0.890  1.00  0.00     0.209 C 
HETATM   49  N   UNL     1       2.405  -2.604  -0.946  1.00  0.00    -0.254 NA
HETATM   50  C   UNL     1       3.049  -2.587  -2.145  1.00  0.00     0.142 C 
HETATM   51  C   UNL     1       2.819  -3.753  -2.848  1.00  0.00     0.026 C 
HETATM   52  C   UNL     1       3.467  -4.195  -4.107  1.00  0.00     0.070 C 
ENDBRANCH  38  47
ENDBRANCH  37  38
ENDBRANCH  36  37
BRANCH  36  53
HETATM   53  N   UNL     1       2.678  -9.118  -1.542  1.00  0.00    -0.345 N 
HETATM   54  C   UNL     1       2.367  -9.553  -0.283  1.00  0.00     0.209 A 
HETATM   55  N   UNL     1       3.243 -10.429   0.152  1.00  0.00    -0.255 NA
HETATM   56  C   UNL     1       4.147 -10.581  -0.860  1.00  0.00     0.135 A 
HETATM   57  C   UNL     1       3.798  -9.803  -1.937  1.00  0.00     0.111 A 
ENDBRANCH  36  53
ENDBRANCH  35  36
ENDBRANCH  34  35
BRANCH  34  58
HETATM   58  N   UNL     1       1.453  -9.654  -5.337  1.00  0.00    -0.339 N 
HETATM   59  C   UNL     1       2.522 -10.501  -5.542  1.00  0.00     0.209 C 
HETATM   60  N   UNL     1       3.311 -10.128  -6.516  1.00  0.00    -0.254 NA
HETATM   61  C   UNL     1       2.837  -8.918  -6.889  1.00  0.00     0.142 C 
HETATM   62  C   UNL     1       1.771  -8.530  -6.097  1.00  0.00     0.026 C 
HETATM   63  C   UNL     1       1.210  -7.157  -6.068  1.00  0.00     0.070 C 
ENDBRANCH  34  58
ENDBRANCH  33  34
ENDBRANCH  32  33
BRANCH  32  64
HETATM   64  N   UNL     1       1.599 -12.994  -2.531  1.00  0.00    -0.344 N 
HETATM   65  C   UNL     1       2.142 -13.643  -3.610  1.00  0.00     0.111 A 
HETATM   66  C   UNL     1       3.035 -14.556  -3.106  1.00  0.00     0.135 A 
HETATM   67  N   UNL     1       3.029 -14.524  -1.747  1.00  0.00    -0.255 NA
HETATM   68  C   UNL     1       2.164 -13.590  -1.430  1.00  0.00     0.209 A 
ENDBRANCH  32  64
ENDBRANCH  31  32
ENDBRANCH  29  31
ENDBRANCH  23  29
ENDBRANCH  17  18
ENDBRANCH  11  17
BRANCH  12  69
HETATM   69  O   UNL     1       1.005 -16.404  -0.368  1.00  0.00    -0.391 OA
HETATM   70  H   UNL     1       1.682 -16.655   0.291  1.00  0.00     0.210 HD
ENDBRANCH  12  69
BRANCH  13  71
HETATM   71  N   UNL     1       0.844 -17.938   2.026  1.00  0.00     0.090 N 
HETATM   72  H   UNL     1       1.067 -16.939   2.074  1.00  0.00     0.313 HD
HETATM   73  H   UNL     1       1.693 -18.350   1.616  1.00  0.00     0.313 HD
ENDBRANCH  13  71
ENDBRANCH   7   8
ENDBRANCH   1   7
BRANCH   2  74
HETATM   74  C   UNL     1       3.826 -18.020  -1.068  1.00  0.00     0.198 C 
BRANCH  74  75
HETATM   75  O   UNL     1       2.765 -17.769  -1.981  1.00  0.00    -0.398 OA
HETATM   76  H   UNL     1       2.262 -18.594  -2.093  1.00  0.00     0.209 HD
ENDBRANCH  74  75
ENDBRANCH   2  74
BRANCH   3  77
HETATM   77  O   UNL     1       1.326 -22.207  -1.249  1.00  0.00    -0.391 OA
HETATM   78  H   UNL     1       1.570 -23.080  -1.603  1.00  0.00     0.210 HD
ENDBRANCH   3  77
BRANCH   4  79
HETATM   79  N   UNL     1       3.258 -22.503   0.844  1.00  0.00     0.097 N 
HETATM   80  H   UNL     1       2.408 -23.053   0.770  1.00  0.00     0.316 HD
BRANCH  79  81
HETATM   81  C   UNL     1       4.226 -23.121   1.768  1.00  0.00     0.296 C 
BRANCH  81  82
HETATM   82  C   UNL     1       4.229 -22.565   3.290  1.00  0.00     0.120 C 
BRANCH  82  83
HETATM   83  N   UNL     1       4.213 -21.106   3.374  1.00  0.00    -0.344 N 
HETATM   84  C   UNL     1       5.273 -20.250   3.536  1.00  0.00     0.111 A 
HETATM   85  C   UNL     1       4.728 -18.987   3.592  1.00  0.00     0.135 A 
HETATM   86  N   UNL     1       3.366 -19.049   3.512  1.00  0.00    -0.255 NA
HETATM   87  C   UNL     1       3.085 -20.328   3.417  1.00  0.00     0.209 A 
ENDBRANCH  82  83
BRANCH  82  88
HETATM   88  C   UNL     1       3.168 -23.324   4.171  1.00  0.00     0.053 C 
BRANCH  88  89
HETATM   89  C   UNL     1       3.123 -23.373   5.759  1.00  0.00     0.094 C 
BRANCH  89  90
HETATM   90  C   UNL     1       2.890 -24.809   6.423  1.00  0.00     0.051 C 
BRANCH  90  91
HETATM   91  C   UNL     1       2.323 -24.922   7.915  1.00  0.00     0.094 C 
BRANCH  91  92
HETATM   92  N   UNL     1       1.922 -26.290   8.266  1.00  0.00    -0.345 N 
HETATM   93  C   UNL     1       1.527 -26.734   9.501  1.00  0.00     0.111 A 
HETATM   94  C   UNL     1       1.501 -28.106   9.401  1.00  0.00     0.135 A 
HETATM   95  N   UNL     1       1.885 -28.504   8.152  1.00  0.00    -0.255 NA
HETATM   96  C   UNL     1       2.120 -27.397   7.486  1.00  0.00     0.209 A 
ENDBRANCH  91  92
BRANCH  91  97
HETATM   97  C   UNL     1       1.105 -23.979   8.255  1.00  0.00     0.051 C 
BRANCH  97  98
HETATM   98  C   UNL     1      -0.190 -24.094   7.358  1.00  0.00     0.094 C 
BRANCH  98  99
HETATM   99  C   UNL     1      -1.377 -24.787   8.156  1.00  0.00     0.051 C 
BRANCH  99 100
HETATM  100  C   UNL     1      -2.786 -25.059   7.537  1.00  0.00     0.089 C 
HETATM  101  C   UNL     1      -3.474 -26.218   8.283  1.00  0.00     0.033 C 
BRANCH 100 102
HETATM  102  N   UNL     1      -3.708 -23.930   7.534  1.00  0.00    -0.334 N 
HETATM  103  C   UNL     1      -4.600 -23.593   6.550  1.00  0.00     0.082 A 
HETATM  104  C   UNL     1      -5.227 -22.460   7.019  1.00  0.00     0.150 A 
HETATM  105  N   UNL     1      -4.716 -22.081   8.233  1.00  0.00    -0.254 NA
HETATM  106  C   UNL     1      -3.807 -22.985   8.521  1.00  0.00     0.210 A 
ENDBRANCH 100 102
ENDBRANCH  99 100
ENDBRANCH  98  99
BRANCH  98 107
HETATM  107  N   UNL     1      -0.567 -22.976   6.501  1.00  0.00    -0.339 N 
HETATM  108  C   UNL     1      -0.840 -21.694   6.892  1.00  0.00     0.209 C 
HETATM  109  N   UNL     1      -1.682 -21.109   6.070  1.00  0.00    -0.254 NA
HETATM  110  C   UNL     1      -1.738 -21.924   4.982  1.00  0.00     0.142 C 
HETATM  111  C   UNL     1      -0.935 -23.031   5.166  1.00  0.00     0.026 C 
HETATM  112  C   UNL     1      -0.467 -23.986   4.142  1.00  0.00     0.070 C 
ENDBRANCH  98 107
ENDBRANCH  97  98
ENDBRANCH  91  97
ENDBRANCH  90  91
ENDBRANCH  89  90
BRANCH  89 113
HETATM  113  N   UNL     1       3.915 -22.376   6.501  1.00  0.00    -0.339 N 
HETATM  114  C   UNL     1       3.655 -21.135   7.053  1.00  0.00     0.026 C 
HETATM  115  C   UNL     1       4.834 -20.756   7.675  1.00  0.00     0.142 C 
HETATM  116  C   UNL     1       2.421 -20.328   7.088  1.00  0.00     0.070 C 
HETATM  117  N   UNL     1       5.729 -21.774   7.702  1.00  0.00    -0.254 NA
HETATM  118  C   UNL     1       5.123 -22.736   7.077  1.00  0.00     0.209 C 
ENDBRANCH  89 113
ENDBRANCH  88  89
ENDBRANCH  82  88
ENDBRANCH  81  82
ENDBRANCH  79  81
ENDBRANCH   4  79
BRANCH   5 119
HETATM  119  O   UNL     1       6.141 -21.604  -0.848  1.00  0.00    -0.348 OA
BRANCH 119 120
HETATM  120  C   UNL     1       7.012 -20.921  -1.804  1.00  0.00     0.186 C 
HETATM  121  C   UNL     1       6.223 -19.991  -2.760  1.00  0.00     0.179 C 
HETATM  122  O   UNL     1       6.478 -18.597  -2.524  1.00  0.00    -0.349 OA
HETATM  123  C   UNL     1       7.842 -18.172  -2.610  1.00  0.00     0.296 C 
HETATM  124  C   UNL     1       8.843 -19.178  -1.949  1.00  0.00     0.303 C 
HETATM  125  C   UNL     1       8.104 -20.166  -1.020  1.00  0.00     0.187 C 
BRANCH 121 126
HETATM  126  C   UNL     1       6.508 -20.314  -4.241  1.00  0.00     0.198 C 
BRANCH 126 127
HETATM  127  O   UNL     1       7.405 -21.412  -4.369  1.00  0.00    -0.398 OA
HETATM  128  H   UNL     1       7.838 -21.550  -3.504  1.00  0.00     0.209 HD
ENDBRANCH 126 127
ENDBRANCH 121 126
BRANCH 123 129
HETATM  129  O   UNL     1       7.927 -16.897  -1.961  1.00  0.00    -0.348 OA
BRANCH 129 130
HETATM  130  C   UNL     1       7.875 -15.748  -2.824  1.00  0.00     0.186 C 
HETATM  131  C   UNL     1       8.040 -14.442  -2.009  1.00  0.00     0.176 C 
HETATM  132  O   UNL     1       8.887 -13.470  -2.674  1.00  0.00    -0.379 OA
HETATM  133  C   UNL     1       8.641 -13.355  -4.077  1.00  0.00     0.206 C 
HETATM  134  C   UNL     1       9.012 -14.654  -4.825  1.00  0.00     0.272 C 
HETATM  135  C   UNL     1       9.026 -15.859  -3.851  1.00  0.00     0.184 C 
BRANCH 131 136
HETATM  136  C   UNL     1       6.703 -13.770  -1.668  1.00  0.00     0.198 C 
BRANCH 136 137
HETATM  137  O   UNL     1       5.986 -14.563  -0.723  1.00  0.00    -0.398 OA
HETATM  138  H   UNL     1       6.625 -15.209  -0.364  1.00  0.00     0.209 HD
ENDBRANCH 136 137
ENDBRANCH 131 136
BRANCH 134 139
HETATM  139  N   UNL     1      10.301 -14.563  -5.543  1.00  0.00     0.087 N 
HETATM  140  H   UNL     1      10.092 -14.360  -6.529  1.00  0.00     0.313 HD
HETATM  141  H   UNL     1      10.781 -15.461  -5.555  1.00  0.00     0.313 HD
ENDBRANCH 134 139
BRANCH 135 142
HETATM  142  O   UNL     1      10.311 -15.924  -3.197  1.00  0.00    -0.391 OA
HETATM  143  H   UNL     1      10.754 -16.732  -3.520  1.00  0.00     0.210 HD
ENDBRANCH 135 142
ENDBRANCH 129 130
ENDBRANCH 123 129
BRANCH 124 144
HETATM  144  N   UNL     1       9.978 -18.510  -1.271  1.00  0.00     0.090 N 
HETATM  145  H   UNL     1      10.699 -19.200  -1.059  1.00  0.00     0.313 HD
HETATM  146  H   UNL     1       9.620 -18.257  -0.339  1.00  0.00     0.313 HD
ENDBRANCH 124 144
BRANCH 125 147
HETATM  147  O   UNL     1       7.588 -19.509   0.137  1.00  0.00    -0.391 OA
HETATM  148  H   UNL     1       8.016 -19.923   0.913  1.00  0.00     0.210 HD
ENDBRANCH 125 147
ENDBRANCH 119 120
ENDBRANCH   5 119
TORSDOF 58
ENDMDL
MODEL 5
REMARK VINA RESULT:      -5.7      3.690     14.869
REMARK WARNING: 32 MAX_TORS EXCEEDED!!!
REMARK  58 active torsions:
REMARK  status: ('A' for Active; 'I' for Inactive)
REMARK    1  A    between atoms: C_1  and  O_30 
REMARK    2  A    between atoms: C_2  and  C_6 
REMARK    3  A    between atoms: C_3  and  O_9 
REMARK    4  A    between atoms: C_4  and  N_11 
REMARK    5  A    between atoms: C_5  and  O_12 
REMARK    6  A    between atoms: C_6  and  O_7 
REMARK    7  A    between atoms: N_11  and  C_118 
REMARK    8  A    between atoms: O_12  and  C_20 
REMARK    9  A    between atoms: O_14  and  C_18 
REMARK   10  A    between atoms: C_16  and  C_23 
REMARK   11  A    between atoms: O_17  and  C_23 
REMARK   12  A    between atoms: O_19  and  C_22 
REMARK   13  A    between atoms: O_19  and  C_42 
REMARK   14  A    between atoms: N_21  and  C_24 
REMARK   15  A    between atoms: O_26  and  C_29 
REMARK   16  A    between atoms: C_28  and  C_34 
REMARK   17  A    between atoms: O_30  and  C_33 
REMARK   18  A    between atoms: C_31  and  O_53 
REMARK   19  A    between atoms: N_32  and  C_35 
REMARK   20  A    between atoms: C_34  and  O_65 
REMARK   21  A    between atoms: O_37  and  C_41 
REMARK   22  A    between atoms: C_39  and  C_45 
REMARK   23  A    between atoms: O_40  and  C_45 
REMARK   24  A    between atoms: N_43  and  C_46 
REMARK   25  A    between atoms: O_48  and  C_52 
REMARK   26  A    between atoms: C_50  and  C_57 
REMARK   27  A    between atoms: O_51  and  C_57 
REMARK   28  A    between atoms: O_53  and  C_56 
REMARK   29  A    between atoms: N_55  and  C_58 
REMARK   30  A    between atoms: N_55  and  C_71 
REMARK   31  A    between atoms: C_71  and  C_73 
REMARK   32  A    between atoms: C_73  and  C_74 
REMARK   33  A    between atoms: C_73  and  N_87 
REMARK   34  A    between atoms: C_74  and  C_75 
REMARK   35  A    between atoms: C_75  and  C_76 
REMARK   36  A    between atoms: C_75  and  N_101 
REMARK   37  A    between atoms: C_76  and  C_77 
REMARK   38  A    between atoms: C_77  and  C_78 
REMARK   39  A    between atoms: C_77  and  N_91 
REMARK   40  A    between atoms: C_78  and  C_79 
REMARK   41  A    between atoms: C_79  and  C_80 
REMARK   42  A    between atoms: C_79  and  N_106 
REMARK   43  A    between atoms: C_80  and  C_81 
REMARK   44  A    between atoms: C_81  and  N_96 
REMARK   45  A    between atoms: N_113  and  C_119 
REMARK   46  A    between atoms: C_118  and  C_119 
REMARK   47  A    between atoms: C_119  and  C_126 
REMARK   48  A    between atoms: N_122  and  C_128 
REMARK   49  A    between atoms: C_124  and  C_128 
REMARK   50  A    between atoms: C_124  and  C_130 
REMARK   51  A    between atoms: N_125  and  C_135 
REMARK   52  A    between atoms: C_126  and  C_130 
REMARK   53  A    between atoms: C_128  and  C_132 
REMARK   54  A    between atoms: N_129  and  C_130 
REMARK   55  A    between atoms: C_132  and  C_137 
REMARK   56  A    between atoms: C_135  and  C_136 
REMARK   57  A    between atoms: C_136  and  C_137 
REMARK   58  A    between atoms: C_137  and  N_140 
ROOT
HETATM    1  C   UNL     1       0.904 -12.320  -1.235  1.00  0.00     0.186 C 
HETATM    2  C   UNL     1       1.640 -12.306  -2.630  1.00  0.00     0.179 C 
HETATM    3  C   UNL     1       1.101 -11.036  -0.368  1.00  0.00     0.188 C 
HETATM    4  C   UNL     1       1.331  -9.751  -1.215  1.00  0.00     0.306 C 
HETATM    5  C   UNL     1       2.577 -10.190  -2.050  1.00  0.00     0.296 C 
HETATM    6  O   UNL     1       2.125 -11.020  -3.101  1.00  0.00    -0.349 OA
ENDROOT
BRANCH   1   7
HETATM    7  O   UNL     1      -0.498 -12.581  -1.434  1.00  0.00    -0.348 OA
BRANCH   7   8
HETATM    8  C   UNL     1      -0.939 -13.868  -0.959  1.00  0.00     0.296 C 
HETATM    9  O   UNL     1       0.232 -14.656  -0.726  1.00  0.00    -0.349 OA
HETATM   10  C   UNL     1      -0.005 -16.016  -0.305  1.00  0.00     0.179 C 
HETATM   11  C   UNL     1      -1.031 -16.740  -1.206  1.00  0.00     0.186 C 
HETATM   12  C   UNL     1      -1.338 -15.899  -2.455  1.00  0.00     0.187 C 
HETATM   13  C   UNL     1      -1.888 -14.534  -2.015  1.00  0.00     0.303 C 
BRANCH  10  14
HETATM   14  C   UNL     1      -0.413 -16.063   1.180  1.00  0.00     0.198 C 
BRANCH  14  15
HETATM   15  O   UNL     1      -1.791 -15.744   1.362  1.00  0.00    -0.398 OA
HETATM   16  H   UNL     1      -1.877 -15.296   2.224  1.00  0.00     0.209 HD
ENDBRANCH  14  15
ENDBRANCH  10  14
BRANCH  11  17
HETATM   17  O   UNL     1      -0.559 -18.012  -1.658  1.00  0.00    -0.348 OA
BRANCH  17  18
HETATM   18  C   UNL     1       0.855 -18.153  -1.708  1.00  0.00     0.296 C 
HETATM   19  O   UNL     1       1.248 -18.499  -3.032  1.00  0.00    -0.351 OA
HETATM   20  C   UNL     1       2.328 -19.437  -3.161  1.00  0.00     0.150 C 
HETATM   21  C   UNL     1       3.405 -19.203  -2.106  1.00  0.00     0.068 C 
HETATM   22  C   UNL     1       2.846 -19.228  -0.678  1.00  0.00     0.158 C 
HETATM   23  C   UNL     1       1.300 -19.143  -0.593  1.00  0.00     0.303 C 
BRANCH  20  24
HETATM   24  C   UNL     1       2.909 -19.325  -4.582  1.00  0.00     0.196 C 
BRANCH  24  25
HETATM   25  O   UNL     1       4.273 -18.913  -4.514  1.00  0.00    -0.398 OA
HETATM   26  H   UNL     1       4.655 -19.303  -3.708  1.00  0.00     0.209 HD
ENDBRANCH  24  25
ENDBRANCH  20  24
BRANCH  22  27
HETATM   27  O   UNL     1       3.310 -20.406  -0.006  1.00  0.00    -0.393 OA
HETATM   28  H   UNL     1       4.160 -20.627  -0.444  1.00  0.00     0.210 HD
ENDBRANCH  22  27
BRANCH  23  29
HETATM   29  N   UNL     1       0.754 -20.531  -0.627  1.00  0.00     0.097 N 
HETATM   30  H   UNL     1       0.132 -20.579  -1.438  1.00  0.00     0.316 HD
BRANCH  29  31
HETATM   31  C   UNL     1      -0.096 -20.937   0.506  1.00  0.00     0.296 C 
BRANCH  31  32
HETATM   32  C   UNL     1      -0.232 -22.495   0.760  1.00  0.00     0.120 C 
BRANCH  32  33
HETATM   33  C   UNL     1      -0.564 -22.748   2.274  1.00  0.00     0.053 C 
BRANCH  33  34
HETATM   34  C   UNL     1       0.011 -21.808   3.409  1.00  0.00     0.094 C 
BRANCH  34  35
HETATM   35  C   UNL     1      -0.860 -22.037   4.734  1.00  0.00     0.051 C 
BRANCH  35  36
HETATM   36  C   UNL     1      -0.939 -21.017   5.923  1.00  0.00     0.094 C 
BRANCH  36  37
HETATM   37  C   UNL     1      -2.038 -21.369   6.987  1.00  0.00     0.051 C 
BRANCH  37  38
HETATM   38  C   UNL     1      -2.774 -22.728   6.774  1.00  0.00     0.094 C 
BRANCH  38  39
HETATM   39  C   UNL     1      -2.287 -23.838   7.773  1.00  0.00     0.051 C 
BRANCH  39  40
HETATM   40  C   UNL     1      -1.655 -25.174   7.294  1.00  0.00     0.089 C 
HETATM   41  C   UNL     1      -1.888 -25.334   5.781  1.00  0.00     0.033 C 
BRANCH  40  42
HETATM   42  N   UNL     1      -0.234 -25.350   7.554  1.00  0.00    -0.334 N 
HETATM   43  C   UNL     1       0.744 -25.385   6.595  1.00  0.00     0.210 A 
HETATM   44  N   UNL     1       1.934 -25.534   7.126  1.00  0.00    -0.254 NA
HETATM   45  C   UNL     1       1.719 -25.583   8.478  1.00  0.00     0.150 A 
HETATM   46  C   UNL     1       0.380 -25.452   8.771  1.00  0.00     0.082 A 
ENDBRANCH  40  42
ENDBRANCH  39  40
ENDBRANCH  38  39
BRANCH  38  47
HETATM   47  N   UNL     1      -4.208 -22.655   6.534  1.00  0.00    -0.339 N 
HETATM   48  C   UNL     1      -5.166 -22.307   7.447  1.00  0.00     0.209 C 
HETATM   49  N   UNL     1      -6.377 -22.511   6.987  1.00  0.00    -0.254 NA
HETATM   50  C   UNL     1      -6.212 -22.841   5.677  1.00  0.00     0.142 C 
HETATM   51  C   UNL     1      -4.874 -22.869   5.337  1.00  0.00     0.026 C 
HETATM   52  C   UNL     1      -4.285 -23.018   3.984  1.00  0.00     0.070 C 
ENDBRANCH  38  47
ENDBRANCH  37  38
ENDBRANCH  36  37
BRANCH  36  53
HETATM   53  N   UNL     1       0.337 -20.909   6.638  1.00  0.00    -0.345 N 
HETATM   54  C   UNL     1       0.950 -21.892   7.362  1.00  0.00     0.209 A 
HETATM   55  N   UNL     1       2.145 -21.521   7.761  1.00  0.00    -0.255 NA
HETATM   56  C   UNL     1       2.322 -20.259   7.270  1.00  0.00     0.135 A 
HETATM   57  C   UNL     1       1.226 -19.869   6.539  1.00  0.00     0.111 A 
ENDBRANCH  36  53
ENDBRANCH  35  36
ENDBRANCH  34  35
BRANCH  34  58
HETATM   58  N   UNL     1       1.470 -21.651   3.463  1.00  0.00    -0.339 N 
HETATM   59  C   UNL     1       2.297 -22.561   4.088  1.00  0.00     0.209 C 
HETATM   60  N   UNL     1       3.557 -22.210   4.096  1.00  0.00    -0.254 NA
HETATM   61  C   UNL     1       3.561 -20.958   3.586  1.00  0.00     0.142 C 
HETATM   62  C   UNL     1       2.277 -20.526   3.305  1.00  0.00     0.026 C 
HETATM   63  C   UNL     1       1.920 -19.119   2.997  1.00  0.00     0.070 C 
ENDBRANCH  34  58
ENDBRANCH  33  34
ENDBRANCH  32  33
BRANCH  32  64
HETATM   64  N   UNL     1       0.808 -23.341   0.169  1.00  0.00    -0.344 N 
HETATM   65  C   UNL     1       2.090 -23.586   0.586  1.00  0.00     0.111 A 
HETATM   66  C   UNL     1       2.646 -24.433  -0.340  1.00  0.00     0.135 A 
HETATM   67  N   UNL     1       1.763 -24.685  -1.341  1.00  0.00    -0.255 NA
HETATM   68  C   UNL     1       0.679 -24.021  -1.017  1.00  0.00     0.209 A 
ENDBRANCH  32  64
ENDBRANCH  31  32
ENDBRANCH  29  31
ENDBRANCH  23  29
ENDBRANCH  17  18
ENDBRANCH  11  17
BRANCH  12  69
HETATM   69  O   UNL     1      -0.181 -15.736  -3.292  1.00  0.00    -0.391 OA
HETATM   70  H   UNL     1      -0.475 -15.303  -4.118  1.00  0.00     0.210 HD
ENDBRANCH  12  69
BRANCH  13  71
HETATM   71  N   UNL     1      -2.174 -13.703  -3.203  1.00  0.00     0.090 N 
HETATM   72  H   UNL     1      -2.242 -14.361  -3.986  1.00  0.00     0.313 HD
HETATM   73  H   UNL     1      -1.299 -13.197  -3.395  1.00  0.00     0.313 HD
ENDBRANCH  13  71
ENDBRANCH   7   8
ENDBRANCH   1   7
BRANCH   2  74
HETATM   74  C   UNL     1       2.815 -13.316  -2.603  1.00  0.00     0.198 C 
BRANCH  74  75
HETATM   75  O   UNL     1       3.742 -13.047  -3.648  1.00  0.00    -0.398 OA
HETATM   76  H   UNL     1       3.376 -13.406  -4.475  1.00  0.00     0.209 HD
ENDBRANCH  74  75
ENDBRANCH   2  74
BRANCH   3  77
HETATM   77  O   UNL     1       0.074 -10.878   0.616  1.00  0.00    -0.391 OA
HETATM   78  H   UNL     1      -0.375 -10.030   0.458  1.00  0.00     0.210 HD
ENDBRANCH   3  77
BRANCH   4  79
HETATM   79  N   UNL     1       0.016  -9.364  -1.815  1.00  0.00     0.097 N 
HETATM   80  H   UNL     1      -0.736  -9.818  -1.306  1.00  0.00     0.316 HD
BRANCH  79  81
HETATM   81  C   UNL     1      -0.279  -7.942  -2.065  1.00  0.00     0.296 C 
BRANCH  81  82
HETATM   82  C   UNL     1      -0.775  -7.072  -0.791  1.00  0.00     0.120 C 
BRANCH  82  83
HETATM   83  N   UNL     1       0.123  -5.968  -0.457  1.00  0.00    -0.344 N 
HETATM   84  C   UNL     1       0.277  -4.769  -1.105  1.00  0.00     0.111 A 
HETATM   85  C   UNL     1       1.266  -4.099  -0.421  1.00  0.00     0.135 A 
HETATM   86  N   UNL     1       1.749  -4.870   0.598  1.00  0.00    -0.255 NA
HETATM   87  C   UNL     1       1.072  -5.992   0.532  1.00  0.00     0.209 A 
ENDBRANCH  82  83
BRANCH  82  88
HETATM   88  C   UNL     1      -2.303  -6.714  -0.912  1.00  0.00     0.053 C 
BRANCH  88  89
HETATM   89  C   UNL     1      -3.516  -7.532  -0.290  1.00  0.00     0.094 C 
BRANCH  89  90
HETATM   90  C   UNL     1      -4.871  -6.720  -0.038  1.00  0.00     0.051 C 
BRANCH  90  91
HETATM   91  C   UNL     1      -5.929  -7.241   1.043  1.00  0.00     0.094 C 
BRANCH  91  92
HETATM   92  N   UNL     1      -6.676  -8.418   0.582  1.00  0.00    -0.345 N 
HETATM   93  C   UNL     1      -6.661  -9.667   1.145  1.00  0.00     0.111 A 
HETATM   94  C   UNL     1      -7.297 -10.481   0.237  1.00  0.00     0.135 A 
HETATM   95  N   UNL     1      -7.678  -9.768  -0.864  1.00  0.00    -0.255 NA
HETATM   96  C   UNL     1      -7.307  -8.531  -0.627  1.00  0.00     0.209 A 
ENDBRANCH  91  92
BRANCH  91  97
HETATM   97  C   UNL     1      -6.990  -6.177   1.525  1.00  0.00     0.051 C 
BRANCH  97  98
HETATM   98  C   UNL     1      -7.011  -5.800   3.059  1.00  0.00     0.094 C 
BRANCH  98  99
HETATM   99  C   UNL     1      -5.541  -5.790   3.664  1.00  0.00     0.051 C 
BRANCH  99 100
HETATM  100  C   UNL     1      -5.235  -6.005   5.181  1.00  0.00     0.089 C 
HETATM  101  C   UNL     1      -4.915  -4.654   5.850  1.00  0.00     0.033 C 
BRANCH 100 102
HETATM  102  N   UNL     1      -6.290  -6.641   5.960  1.00  0.00    -0.334 N 
HETATM  103  C   UNL     1      -7.056  -6.067   6.939  1.00  0.00     0.082 A 
HETATM  104  C   UNL     1      -7.896  -7.073   7.362  1.00  0.00     0.150 A 
HETATM  105  N   UNL     1      -7.635  -8.244   6.699  1.00  0.00    -0.254 NA
HETATM  106  C   UNL     1      -6.668  -7.955   5.859  1.00  0.00     0.210 A 
ENDBRANCH 100 102
ENDBRANCH  99 100
ENDBRANCH  98  99
BRANCH  98 107
HETATM  107  N   UNL     1      -7.897  -4.739   3.522  1.00  0.00    -0.339 N 
HETATM  108  C   UNL     1      -7.663  -3.392   3.478  1.00  0.00     0.209 C 
HETATM  109  N   UNL     1      -8.295  -2.762   4.442  1.00  0.00    -0.254 NA
HETATM  110  C   UNL     1      -9.171  -3.673   4.945  1.00  0.00     0.142 C 
HETATM  111  C   UNL     1      -9.043  -4.880   4.288  1.00  0.00     0.026 C 
HETATM  112  C   UNL     1      -9.986  -6.016   4.298  1.00  0.00     0.070 C 
ENDBRANCH  98 107
ENDBRANCH  97  98
ENDBRANCH  91  97
ENDBRANCH  90  91
ENDBRANCH  89  90
BRANCH  89 113
HETATM  113  N   UNL     1      -3.606  -8.970  -0.600  1.00  0.00    -0.339 N 
HETATM  114  C   UNL     1      -3.929  -9.711  -1.721  1.00  0.00     0.026 C 
HETATM  115  C   UNL     1      -3.753 -11.035  -1.351  1.00  0.00     0.142 C 
HETATM  116  C   UNL     1      -4.324  -9.292  -3.079  1.00  0.00     0.070 C 
HETATM  117  N   UNL     1      -3.156 -11.134  -0.138  1.00  0.00    -0.254 NA
HETATM  118  C   UNL     1      -3.008  -9.900   0.237  1.00  0.00     0.209 C 
ENDBRANCH  89 113
ENDBRANCH  88  89
ENDBRANCH  82  88
ENDBRANCH  81  82
ENDBRANCH  79  81
ENDBRANCH   4  79
BRANCH   5 119
HETATM  119  O   UNL     1       3.407  -9.088  -2.449  1.00  0.00    -0.348 OA
BRANCH 119 120
HETATM  120  C   UNL     1       4.833  -9.372  -2.294  1.00  0.00     0.186 C 
HETATM  121  C   UNL     1       5.101 -10.499  -1.266  1.00  0.00     0.179 C 
HETATM  122  O   UNL     1       5.591 -11.707  -1.870  1.00  0.00    -0.349 OA
HETATM  123  C   UNL     1       6.791 -11.596  -2.643  1.00  0.00     0.296 C 
HETATM  124  C   UNL     1       6.831 -10.310  -3.536  1.00  0.00     0.303 C 
HETATM  125  C   UNL     1       5.423  -9.693  -3.682  1.00  0.00     0.187 C 
BRANCH 121 126
HETATM  126  C   UNL     1       6.084 -10.051  -0.164  1.00  0.00     0.198 C 
BRANCH 126 127
HETATM  127  O   UNL     1       5.401  -9.744   1.047  1.00  0.00    -0.398 OA
HETATM  128  H   UNL     1       4.663  -9.139   0.832  1.00  0.00     0.209 HD
ENDBRANCH 126 127
ENDBRANCH 121 126
BRANCH 123 129
HETATM  129  O   UNL     1       6.874 -12.768  -3.464  1.00  0.00    -0.348 OA
BRANCH 129 130
HETATM  130  C   UNL     1       7.510 -13.910  -2.865  1.00  0.00     0.186 C 
HETATM  131  C   UNL     1       6.526 -15.102  -2.778  1.00  0.00     0.176 C 
HETATM  132  O   UNL     1       7.149 -16.369  -3.110  1.00  0.00    -0.379 OA
HETATM  133  C   UNL     1       8.451 -16.536  -2.544  1.00  0.00     0.206 C 
HETATM  134  C   UNL     1       9.459 -15.528  -3.138  1.00  0.00     0.272 C 
HETATM  135  C   UNL     1       8.720 -14.308  -3.743  1.00  0.00     0.184 C 
BRANCH 131 136
HETATM  136  C   UNL     1       5.856 -15.233  -1.403  1.00  0.00     0.198 C 
BRANCH 136 137
HETATM  137  O   UNL     1       6.372 -14.244  -0.513  1.00  0.00    -0.398 OA
HETATM  138  H   UNL     1       6.845 -13.593  -1.069  1.00  0.00     0.209 HD
ENDBRANCH 136 137
ENDBRANCH 131 136
BRANCH 134 139
HETATM  139  N   UNL     1      10.357 -16.131  -4.145  1.00  0.00     0.087 N 
HETATM  140  H   UNL     1      11.149 -15.489  -4.277  1.00  0.00     0.313 HD
HETATM  141  H   UNL     1       9.907 -16.183  -5.058  1.00  0.00     0.313 HD
ENDBRANCH 134 139
BRANCH 135 142
HETATM  142  O   UNL     1       8.311 -14.624  -5.091  1.00  0.00    -0.391 OA
HETATM  143  H   UNL     1       9.126 -14.727  -5.618  1.00  0.00     0.210 HD
ENDBRANCH 135 142
ENDBRANCH 129 130
ENDBRANCH 123 129
BRANCH 124 144
HETATM  144  N   UNL     1       7.488 -10.532  -4.846  1.00  0.00     0.090 N 
HETATM  145  H   UNL     1       8.343 -11.071  -4.708  1.00  0.00     0.313 HD
HETATM  146  H   UNL     1       7.842  -9.606  -5.126  1.00  0.00     0.313 HD
ENDBRANCH 124 144
BRANCH 125 147
HETATM  147  O   UNL     1       4.564 -10.528  -4.459  1.00  0.00    -0.391 OA
HETATM  148  H   UNL     1       5.122 -11.237  -4.835  1.00  0.00     0.210 HD
ENDBRANCH 125 147
ENDBRANCH 119 120
ENDBRANCH   5 119
TORSDOF 58
ENDMDL
MODEL 6
REMARK VINA RESULT:      -5.6      2.250      5.184
REMARK WARNING: 32 MAX_TORS EXCEEDED!!!
REMARK  58 active torsions:
REMARK  status: ('A' for Active; 'I' for Inactive)
REMARK    1  A    between atoms: C_1  and  O_30 
REMARK    2  A    between atoms: C_2  and  C_6 
REMARK    3  A    between atoms: C_3  and  O_9 
REMARK    4  A    between atoms: C_4  and  N_11 
REMARK    5  A    between atoms: C_5  and  O_12 
REMARK    6  A    between atoms: C_6  and  O_7 
REMARK    7  A    between atoms: N_11  and  C_118 
REMARK    8  A    between atoms: O_12  and  C_20 
REMARK    9  A    between atoms: O_14  and  C_18 
REMARK   10  A    between atoms: C_16  and  C_23 
REMARK   11  A    between atoms: O_17  and  C_23 
REMARK   12  A    between atoms: O_19  and  C_22 
REMARK   13  A    between atoms: O_19  and  C_42 
REMARK   14  A    between atoms: N_21  and  C_24 
REMARK   15  A    between atoms: O_26  and  C_29 
REMARK   16  A    between atoms: C_28  and  C_34 
REMARK   17  A    between atoms: O_30  and  C_33 
REMARK   18  A    between atoms: C_31  and  O_53 
REMARK   19  A    between atoms: N_32  and  C_35 
REMARK   20  A    between atoms: C_34  and  O_65 
REMARK   21  A    between atoms: O_37  and  C_41 
REMARK   22  A    between atoms: C_39  and  C_45 
REMARK   23  A    between atoms: O_40  and  C_45 
REMARK   24  A    between atoms: N_43  and  C_46 
REMARK   25  A    between atoms: O_48  and  C_52 
REMARK   26  A    between atoms: C_50  and  C_57 
REMARK   27  A    between atoms: O_51  and  C_57 
REMARK   28  A    between atoms: O_53  and  C_56 
REMARK   29  A    between atoms: N_55  and  C_58 
REMARK   30  A    between atoms: N_55  and  C_71 
REMARK   31  A    between atoms: C_71  and  C_73 
REMARK   32  A    between atoms: C_73  and  C_74 
REMARK   33  A    between atoms: C_73  and  N_87 
REMARK   34  A    between atoms: C_74  and  C_75 
REMARK   35  A    between atoms: C_75  and  C_76 
REMARK   36  A    between atoms: C_75  and  N_101 
REMARK   37  A    between atoms: C_76  and  C_77 
REMARK   38  A    between atoms: C_77  and  C_78 
REMARK   39  A    between atoms: C_77  and  N_91 
REMARK   40  A    between atoms: C_78  and  C_79 
REMARK   41  A    between atoms: C_79  and  C_80 
REMARK   42  A    between atoms: C_79  and  N_106 
REMARK   43  A    between atoms: C_80  and  C_81 
REMARK   44  A    between atoms: C_81  and  N_96 
REMARK   45  A    between atoms: N_113  and  C_119 
REMARK   46  A    between atoms: C_118  and  C_119 
REMARK   47  A    between atoms: C_119  and  C_126 
REMARK   48  A    between atoms: N_122  and  C_128 
REMARK   49  A    between atoms: C_124  and  C_128 
REMARK   50  A    between atoms: C_124  and  C_130 
REMARK   51  A    between atoms: N_125  and  C_135 
REMARK   52  A    between atoms: C_126  and  C_130 
REMARK   53  A    between atoms: C_128  and  C_132 
REMARK   54  A    between atoms: N_129  and  C_130 
REMARK   55  A    between atoms: C_132  and  C_137 
REMARK   56  A    between atoms: C_135  and  C_136 
REMARK   57  A    between atoms: C_136  and  C_137 
REMARK   58  A    between atoms: C_137  and  N_140 
ROOT
HETATM    1  C   UNL     1       2.858 -18.619  -0.808  1.00  0.00     0.186 C 
HETATM    2  C   UNL     1       4.078 -17.622  -0.888  1.00  0.00     0.179 C 
HETATM    3  C   UNL     1       3.228 -20.091  -0.438  1.00  0.00     0.188 C 
HETATM    4  C   UNL     1       4.499 -20.200   0.453  1.00  0.00     0.306 C 
HETATM    5  C   UNL     1       5.536 -19.459  -0.453  1.00  0.00     0.296 C 
HETATM    6  O   UNL     1       5.330 -18.070  -0.301  1.00  0.00    -0.349 OA
ENDROOT
BRANCH   1   7
HETATM    7  O   UNL     1       1.876 -18.102   0.110  1.00  0.00    -0.348 OA
BRANCH   7   8
HETATM    8  C   UNL     1       0.659 -17.646  -0.512  1.00  0.00     0.296 C 
HETATM    9  O   UNL     1       1.006 -16.550  -1.363  1.00  0.00    -0.349 OA
HETATM   10  C   UNL     1      -0.098 -15.905  -2.032  1.00  0.00     0.179 C 
HETATM   11  C   UNL     1      -1.249 -15.556  -1.062  1.00  0.00     0.186 C 
HETATM   12  C   UNL     1      -0.807 -15.762   0.395  1.00  0.00     0.187 C 
HETATM   13  C   UNL     1      -0.380 -17.226   0.584  1.00  0.00     0.303 C 
BRANCH  10  14
HETATM   14  C   UNL     1      -0.589 -16.758  -3.218  1.00  0.00     0.198 C 
BRANCH  14  15
HETATM   15  O   UNL     1      -1.786 -17.465  -2.904  1.00  0.00    -0.398 OA
HETATM   16  H   UNL     1      -2.082 -17.166  -2.024  1.00  0.00     0.209 HD
ENDBRANCH  14  15
ENDBRANCH  10  14
BRANCH  11  17
HETATM   17  O   UNL     1      -1.673 -14.195  -1.186  1.00  0.00    -0.348 OA
BRANCH  17  18
HETATM   18  C   UNL     1      -3.004 -14.013  -1.656  1.00  0.00     0.296 C 
HETATM   19  O   UNL     1      -3.610 -15.285  -1.861  1.00  0.00    -0.351 OA
HETATM   20  C   UNL     1      -4.478 -15.411  -2.998  1.00  0.00     0.150 C 
HETATM   21  C   UNL     1      -5.311 -14.151  -3.212  1.00  0.00     0.068 C 
HETATM   22  C   UNL     1      -4.448 -12.889  -3.338  1.00  0.00     0.158 C 
HETATM   23  C   UNL     1      -2.973 -13.074  -2.896  1.00  0.00     0.303 C 
BRANCH  20  24
HETATM   24  C   UNL     1      -5.378 -16.643  -2.795  1.00  0.00     0.196 C 
BRANCH  24  25
HETATM   25  O   UNL     1      -4.586 -17.758  -2.388  1.00  0.00    -0.398 OA
HETATM   26  H   UNL     1      -3.749 -17.407  -2.037  1.00  0.00     0.209 HD
ENDBRANCH  24  25
ENDBRANCH  20  24
BRANCH  22  27
HETATM   27  O   UNL     1      -4.500 -12.412  -4.688  1.00  0.00    -0.393 OA
HETATM   28  H   UNL     1      -4.760 -13.193  -5.221  1.00  0.00     0.210 HD
ENDBRANCH  22  27
BRANCH  23  29
HETATM   29  N   UNL     1      -2.181 -13.504  -4.084  1.00  0.00     0.097 N 
HETATM   30  H   UNL     1      -1.703 -14.370  -3.818  1.00  0.00     0.316 HD
BRANCH  29  31
HETATM   31  C   UNL     1      -1.094 -12.608  -4.516  1.00  0.00     0.296 C 
BRANCH  31  32
HETATM   32  C   UNL     1       0.002 -12.258  -3.427  1.00  0.00     0.120 C 
BRANCH  32  33
HETATM   33  C   UNL     1       0.108 -10.698  -3.279  1.00  0.00     0.053 C 
BRANCH  33  34
HETATM   34  C   UNL     1       0.619 -10.034  -1.937  1.00  0.00     0.094 C 
BRANCH  34  35
HETATM   35  C   UNL     1       0.694  -8.450  -2.162  1.00  0.00     0.051 C 
BRANCH  35  36
HETATM   36  C   UNL     1       1.934  -7.565  -1.787  1.00  0.00     0.094 C 
BRANCH  36  37
HETATM   37  C   UNL     1       2.884  -7.262  -3.000  1.00  0.00     0.051 C 
BRANCH  37  38
HETATM   38  C   UNL     1       4.073  -8.253  -3.191  1.00  0.00     0.094 C 
BRANCH  38  39
HETATM   39  C   UNL     1       4.379  -9.084  -1.893  1.00  0.00     0.051 C 
BRANCH  39  40
HETATM   40  C   UNL     1       5.811  -9.566  -1.528  1.00  0.00     0.089 C 
HETATM   41  C   UNL     1       5.914  -9.744  -0.002  1.00  0.00     0.033 C 
BRANCH  40  42
HETATM   42  N   UNL     1       6.262 -10.797  -2.160  1.00  0.00    -0.334 N 
HETATM   43  C   UNL     1       6.865 -10.876  -3.387  1.00  0.00     0.210 A 
HETATM   44  N   UNL     1       7.182 -12.112  -3.690  1.00  0.00    -0.254 NA
HETATM   45  C   UNL     1       6.782 -12.858  -2.612  1.00  0.00     0.150 A 
HETATM   46  C   UNL     1       6.223 -12.060  -1.639  1.00  0.00     0.082 A 
ENDBRANCH  40  42
ENDBRANCH  39  40
ENDBRANCH  38  39
BRANCH  38  47
HETATM   47  N   UNL     1       4.111  -8.982  -4.451  1.00  0.00    -0.339 N 
HETATM   48  C   UNL     1       3.433 -10.135  -4.741  1.00  0.00     0.209 C 
HETATM   49  N   UNL     1       3.811 -10.649  -5.887  1.00  0.00    -0.254 NA
HETATM   50  C   UNL     1       4.634  -9.720  -6.443  1.00  0.00     0.142 C 
HETATM   51  C   UNL     1       4.787  -8.630  -5.609  1.00  0.00     0.026 C 
HETATM   52  C   UNL     1       5.459  -7.343  -5.912  1.00  0.00     0.070 C 
ENDBRANCH  38  47
ENDBRANCH  37  38
ENDBRANCH  36  37
BRANCH  36  53
HETATM   53  N   UNL     1       1.535  -6.275  -1.218  1.00  0.00    -0.345 N 
HETATM   54  C   UNL     1       1.129  -5.169  -1.912  1.00  0.00     0.209 A 
HETATM   55  N   UNL     1       0.708  -4.222  -1.104  1.00  0.00    -0.255 NA
HETATM   56  C   UNL     1       0.831  -4.732   0.157  1.00  0.00     0.135 A 
HETATM   57  C   UNL     1       1.310  -6.019   0.111  1.00  0.00     0.111 A 
ENDBRANCH  36  53
ENDBRANCH  35  36
ENDBRANCH  34  35
BRANCH  34  58
HETATM   58  N   UNL     1       0.122 -10.612  -0.681  1.00  0.00    -0.339 N 
HETATM   59  C   UNL     1       0.844 -11.524   0.060  1.00  0.00     0.209 C 
HETATM   60  N   UNL     1       0.204 -11.979   1.105  1.00  0.00    -0.254 NA
HETATM   61  C   UNL     1      -1.041 -11.465   0.989  1.00  0.00     0.142 C 
HETATM   62  C   UNL     1      -1.171 -10.722  -0.172  1.00  0.00     0.026 C 
HETATM   63  C   UNL     1      -2.468 -10.259  -0.725  1.00  0.00     0.070 C 
ENDBRANCH  34  58
ENDBRANCH  33  34
ENDBRANCH  32  33
BRANCH  32  64
HETATM   64  N   UNL     1       1.267 -12.993  -3.520  1.00  0.00    -0.344 N 
HETATM   65  C   UNL     1       2.365 -12.966  -2.701  1.00  0.00     0.111 A 
HETATM   66  C   UNL     1       3.283 -13.826  -3.252  1.00  0.00     0.135 A 
HETATM   67  N   UNL     1       2.804 -14.350  -4.410  1.00  0.00    -0.255 NA
HETATM   68  C   UNL     1       1.605 -13.836  -4.549  1.00  0.00     0.209 A 
ENDBRANCH  32  64
ENDBRANCH  31  32
ENDBRANCH  29  31
ENDBRANCH  23  29
ENDBRANCH  17  18
ENDBRANCH  11  17
BRANCH  12  69
HETATM   69  O   UNL     1       0.257 -14.869   0.766  1.00  0.00    -0.391 OA
HETATM   70  H   UNL     1       0.628 -15.191   1.612  1.00  0.00     0.210 HD
ENDBRANCH  12  69
BRANCH  13  71
HETATM   71  N   UNL     1       0.066 -17.441   1.976  1.00  0.00     0.090 N 
HETATM   72  H   UNL     1      -0.772 -17.728   2.490  1.00  0.00     0.313 HD
HETATM   73  H   UNL     1       0.260 -16.500   2.346  1.00  0.00     0.313 HD
ENDBRANCH  13  71
ENDBRANCH   7   8
ENDBRANCH   1   7
BRANCH   2  74
HETATM   74  C   UNL     1       4.322 -17.224  -2.366  1.00  0.00     0.198 C 
BRANCH  74  75
HETATM   75  O   UNL     1       3.114 -17.283  -3.116  1.00  0.00    -0.398 OA
HETATM   76  H   UNL     1       2.606 -18.054  -2.809  1.00  0.00     0.209 HD
ENDBRANCH  74  75
ENDBRANCH   2  74
BRANCH   3  77
HETATM   77  O   UNL     1       2.114 -20.818   0.090  1.00  0.00    -0.391 OA
HETATM   78  H   UNL     1       2.090 -21.693  -0.334  1.00  0.00     0.210 HD
ENDBRANCH   3  77
BRANCH   4  79
HETATM   79  N   UNL     1       4.125 -19.757   1.832  1.00  0.00     0.097 N 
HETATM   80  H   UNL     1       3.129 -19.891   1.973  1.00  0.00     0.316 HD
BRANCH  79  81
HETATM   81  C   UNL     1       4.908 -20.233   2.986  1.00  0.00     0.296 C 
BRANCH  81  82
HETATM   82  C   UNL     1       4.300 -21.496   3.799  1.00  0.00     0.120 C 
BRANCH  82  83
HETATM   83  N   UNL     1       4.287 -22.734   3.022  1.00  0.00    -0.344 N 
HETATM   84  C   UNL     1       3.236 -23.311   2.357  1.00  0.00     0.111 A 
HETATM   85  C   UNL     1       3.730 -24.478   1.818  1.00  0.00     0.135 A 
HETATM   86  N   UNL     1       5.038 -24.651   2.169  1.00  0.00    -0.255 NA
HETATM   87  C   UNL     1       5.334 -23.612   2.915  1.00  0.00     0.209 A 
ENDBRANCH  82  83
BRANCH  82  88
HETATM   88  C   UNL     1       4.917 -21.589   5.244  1.00  0.00     0.053 C 
BRANCH  88  89
HETATM   89  C   UNL     1       4.796 -20.496   6.392  1.00  0.00     0.094 C 
BRANCH  89  90
HETATM   90  C   UNL     1       3.333 -20.242   6.987  1.00  0.00     0.051 C 
BRANCH  90  91
HETATM   91  C   UNL     1       2.112 -21.175   6.542  1.00  0.00     0.094 C 
BRANCH  91  92
HETATM   92  N   UNL     1       1.219 -20.519   5.580  1.00  0.00    -0.345 N 
HETATM   93  C   UNL     1       0.085 -19.807   5.870  1.00  0.00     0.111 A 
HETATM   94  C   UNL     1      -0.539 -19.610   4.661  1.00  0.00     0.135 A 
HETATM   95  N   UNL     1       0.171 -20.196   3.652  1.00  0.00    -0.255 NA
HETATM   96  C   UNL     1       1.228 -20.724   4.226  1.00  0.00     0.209 A 
ENDBRANCH  91  92
BRANCH  91  97
HETATM   97  C   UNL     1       1.210 -21.723   7.715  1.00  0.00     0.051 C 
BRANCH  97  98
HETATM   98  C   UNL     1       0.823 -23.254   7.695  1.00  0.00     0.094 C 
BRANCH  98  99
HETATM   99  C   UNL     1       0.207 -23.669   6.289  1.00  0.00     0.051 C 
BRANCH  99 100
HETATM  100  C   UNL     1      -1.232 -23.270   5.831  1.00  0.00     0.089 C 
HETATM  101  C   UNL     1      -1.833 -24.384   4.952  1.00  0.00     0.033 C 
BRANCH 100 102
HETATM  102  N   UNL     1      -2.186 -22.993   6.898  1.00  0.00    -0.334 N 
HETATM  103  C   UNL     1      -2.924 -23.904   7.606  1.00  0.00     0.082 A 
HETATM  104  C   UNL     1      -3.664 -23.147   8.487  1.00  0.00     0.150 A 
HETATM  105  N   UNL     1      -3.427 -21.809   8.307  1.00  0.00    -0.254 NA
HETATM  106  C   UNL     1      -2.531 -21.745   7.348  1.00  0.00     0.210 A 
ENDBRANCH 100 102
ENDBRANCH  99 100
ENDBRANCH  98  99
BRANCH  98 107
HETATM  107  N   UNL     1       1.721 -24.226   8.307  1.00  0.00    -0.339 N 
HETATM  108  C   UNL     1       3.071 -24.100   8.487  1.00  0.00     0.209 C 
HETATM  109  N   UNL     1       3.667 -25.271   8.491  1.00  0.00    -0.254 NA
HETATM  110  C   UNL     1       2.660 -26.180   8.595  1.00  0.00     0.142 C 
HETATM  111  C   UNL     1       1.437 -25.543   8.628  1.00  0.00     0.026 C 
HETATM  112  C   UNL     1       0.136 -26.108   9.040  1.00  0.00     0.070 C 
ENDBRANCH  98 107
ENDBRANCH  97  98
ENDBRANCH  91  97
ENDBRANCH  90  91
ENDBRANCH  89  90
BRANCH  89 113
HETATM  113  N   UNL     1       5.958 -20.296   7.277  1.00  0.00    -0.339 N 
HETATM  114  C   UNL     1       6.355 -20.806   8.499  1.00  0.00     0.026 C 
HETATM  115  C   UNL     1       7.598 -20.243   8.745  1.00  0.00     0.142 C 
HETATM  116  C   UNL     1       5.713 -21.783   9.398  1.00  0.00     0.070 C 
HETATM  117  N   UNL     1       8.064 -19.579   7.660  1.00  0.00    -0.254 NA
HETATM  118  C   UNL     1       7.110 -19.702   6.787  1.00  0.00     0.209 C 
ENDBRANCH  89 113
ENDBRANCH  88  89
ENDBRANCH  82  88
ENDBRANCH  81  82
ENDBRANCH  79  81
ENDBRANCH   4  79
BRANCH   5 119
HETATM  119  O   UNL     1       6.885 -19.908  -0.251  1.00  0.00    -0.348 OA
BRANCH 119 120
HETATM  120  C   UNL     1       7.391 -20.695  -1.375  1.00  0.00     0.186 C 
HETATM  121  C   UNL     1       7.107 -20.021  -2.741  1.00  0.00     0.179 C 
HETATM  122  O   UNL     1       8.296 -19.539  -3.388  1.00  0.00    -0.349 OA
HETATM  123  C   UNL     1       9.324 -20.503  -3.638  1.00  0.00     0.296 C 
HETATM  124  C   UNL     1       9.540 -21.497  -2.448  1.00  0.00     0.303 C 
HETATM  125  C   UNL     1       8.894 -20.959  -1.152  1.00  0.00     0.187 C 
BRANCH 121 126
HETATM  126  C   UNL     1       6.356 -20.965  -3.703  1.00  0.00     0.198 C 
BRANCH 126 127
HETATM  127  O   UNL     1       4.963 -20.672  -3.735  1.00  0.00    -0.398 OA
HETATM  128  H   UNL     1       4.507 -21.420  -4.168  1.00  0.00     0.209 HD
ENDBRANCH 126 127
ENDBRANCH 121 126
BRANCH 123 129
HETATM  129  O   UNL     1      10.532 -19.773  -3.894  1.00  0.00    -0.348 OA
BRANCH 129 130
HETATM  130  C   UNL     1      10.397 -18.610  -4.728  1.00  0.00     0.186 C 
HETATM  131  C   UNL     1      10.959 -17.356  -4.015  1.00  0.00     0.176 C 
HETATM  132  O   UNL     1      11.712 -16.494  -4.906  1.00  0.00    -0.379 OA
HETATM  133  C   UNL     1      11.102 -16.316  -6.186  1.00  0.00     0.206 C 
HETATM  134  C   UNL     1      11.070 -17.637  -6.986  1.00  0.00     0.272 C 
HETATM  135  C   UNL     1      11.191 -18.854  -6.034  1.00  0.00     0.184 C 
BRANCH 131 136
HETATM  136  C   UNL     1       9.874 -16.517  -3.326  1.00  0.00     0.198 C 
BRANCH 136 137
HETATM  137  O   UNL     1       9.316 -17.244  -2.233  1.00  0.00    -0.398 OA
HETATM  138  H   UNL     1       8.420 -17.517  -2.511  1.00  0.00     0.209 HD
ENDBRANCH 136 137
ENDBRANCH 131 136
BRANCH 134 139
HETATM  139  N   UNL     1      12.108 -17.706  -8.036  1.00  0.00     0.087 N 
HETATM  140  H   UNL     1      12.439 -16.748  -8.207  1.00  0.00     0.313 HD
HETATM  141  H   UNL     1      11.714 -18.010  -8.925  1.00  0.00     0.313 HD
ENDBRANCH 134 139
BRANCH 135 142
HETATM  142  O   UNL     1      12.586 -19.106  -5.763  1.00  0.00    -0.391 OA
HETATM  143  H   UNL     1      12.831 -18.555  -4.995  1.00  0.00     0.210 HD
ENDBRANCH 135 142
ENDBRANCH 129 130
ENDBRANCH 123 129
BRANCH 124 144
HETATM  144  N   UNL     1      10.960 -21.874  -2.254  1.00  0.00     0.090 N 
HETATM  145  H   UNL     1      11.112 -22.815  -2.617  1.00  0.00     0.313 HD
HETATM  146  H   UNL     1      11.066 -21.998  -1.237  1.00  0.00     0.313 HD
ENDBRANCH 124 144
BRANCH 125 147
HETATM  147  O   UNL     1       9.582 -19.808  -0.663  1.00  0.00    -0.391 OA
HETATM  148  H   UNL     1      10.036 -20.078   0.159  1.00  0.00     0.210 HD
ENDBRANCH 125 147
ENDBRANCH 119 120
ENDBRANCH   5 119
TORSDOF 58
ENDMDL
MODEL 7
REMARK VINA RESULT:      -5.6      6.566     14.067
REMARK WARNING: 32 MAX_TORS EXCEEDED!!!
REMARK  58 active torsions:
REMARK  status: ('A' for Active; 'I' for Inactive)
REMARK    1  A    between atoms: C_1  and  O_30 
REMARK    2  A    between atoms: C_2  and  C_6 
REMARK    3  A    between atoms: C_3  and  O_9 
REMARK    4  A    between atoms: C_4  and  N_11 
REMARK    5  A    between atoms: C_5  and  O_12 
REMARK    6  A    between atoms: C_6  and  O_7 
REMARK    7  A    between atoms: N_11  and  C_118 
REMARK    8  A    between atoms: O_12  and  C_20 
REMARK    9  A    between atoms: O_14  and  C_18 
REMARK   10  A    between atoms: C_16  and  C_23 
REMARK   11  A    between atoms: O_17  and  C_23 
REMARK   12  A    between atoms: O_19  and  C_22 
REMARK   13  A    between atoms: O_19  and  C_42 
REMARK   14  A    between atoms: N_21  and  C_24 
REMARK   15  A    between atoms: O_26  and  C_29 
REMARK   16  A    between atoms: C_28  and  C_34 
REMARK   17  A    between atoms: O_30  and  C_33 
REMARK   18  A    between atoms: C_31  and  O_53 
REMARK   19  A    between atoms: N_32  and  C_35 
REMARK   20  A    between atoms: C_34  and  O_65 
REMARK   21  A    between atoms: O_37  and  C_41 
REMARK   22  A    between atoms: C_39  and  C_45 
REMARK   23  A    between atoms: O_40  and  C_45 
REMARK   24  A    between atoms: N_43  and  C_46 
REMARK   25  A    between atoms: O_48  and  C_52 
REMARK   26  A    between atoms: C_50  and  C_57 
REMARK   27  A    between atoms: O_51  and  C_57 
REMARK   28  A    between atoms: O_53  and  C_56 
REMARK   29  A    between atoms: N_55  and  C_58 
REMARK   30  A    between atoms: N_55  and  C_71 
REMARK   31  A    between atoms: C_71  and  C_73 
REMARK   32  A    between atoms: C_73  and  C_74 
REMARK   33  A    between atoms: C_73  and  N_87 
REMARK   34  A    between atoms: C_74  and  C_75 
REMARK   35  A    between atoms: C_75  and  C_76 
REMARK   36  A    between atoms: C_75  and  N_101 
REMARK   37  A    between atoms: C_76  and  C_77 
REMARK   38  A    between atoms: C_77  and  C_78 
REMARK   39  A    between atoms: C_77  and  N_91 
REMARK   40  A    between atoms: C_78  and  C_79 
REMARK   41  A    between atoms: C_79  and  C_80 
REMARK   42  A    between atoms: C_79  and  N_106 
REMARK   43  A    between atoms: C_80  and  C_81 
REMARK   44  A    between atoms: C_81  and  N_96 
REMARK   45  A    between atoms: N_113  and  C_119 
REMARK   46  A    between atoms: C_118  and  C_119 
REMARK   47  A    between atoms: C_119  and  C_126 
REMARK   48  A    between atoms: N_122  and  C_128 
REMARK   49  A    between atoms: C_124  and  C_128 
REMARK   50  A    between atoms: C_124  and  C_130 
REMARK   51  A    between atoms: N_125  and  C_135 
REMARK   52  A    between atoms: C_126  and  C_130 
REMARK   53  A    between atoms: C_128  and  C_132 
REMARK   54  A    between atoms: N_129  and  C_130 
REMARK   55  A    between atoms: C_132  and  C_137 
REMARK   56  A    between atoms: C_135  and  C_136 
REMARK   57  A    between atoms: C_136  and  C_137 
REMARK   58  A    between atoms: C_137  and  N_140 
ROOT
HETATM    1  C   UNL     1       0.218 -10.612  -0.202  1.00  0.00     0.186 C 
HETATM    2  C   UNL     1       0.291 -11.930  -1.066  1.00  0.00     0.179 C 
HETATM    3  C   UNL     1       1.506  -9.728  -0.231  1.00  0.00     0.188 C 
HETATM    4  C   UNL     1       2.307  -9.852  -1.559  1.00  0.00     0.306 C 
HETATM    5  C   UNL     1       2.556 -11.395  -1.588  1.00  0.00     0.296 C 
HETATM    6  O   UNL     1       1.370 -12.018  -2.036  1.00  0.00    -0.349 OA
ENDROOT
BRANCH   1   7
HETATM    7  O   UNL     1      -0.930  -9.840  -0.599  1.00  0.00    -0.348 OA
BRANCH   7   8
HETATM    8  C   UNL     1      -2.198 -10.461  -0.309  1.00  0.00     0.296 C 
HETATM    9  O   UNL     1      -2.948 -10.477  -1.527  1.00  0.00    -0.349 OA
HETATM   10  C   UNL     1      -4.287 -11.006  -1.426  1.00  0.00     0.179 C 
HETATM   11  C   UNL     1      -5.079 -10.382  -0.256  1.00  0.00     0.186 C 
HETATM   12  C   UNL     1      -4.314  -9.187   0.335  1.00  0.00     0.187 C 
HETATM   13  C   UNL     1      -2.939  -9.666   0.822  1.00  0.00     0.303 C 
BRANCH  10  14
HETATM   14  C   UNL     1      -4.260 -12.544  -1.344  1.00  0.00     0.198 C 
BRANCH  14  15
HETATM   15  O   UNL     1      -5.528 -13.077  -0.967  1.00  0.00    -0.398 OA
HETATM   16  H   UNL     1      -5.572 -13.069   0.007  1.00  0.00     0.209 HD
ENDBRANCH  14  15
ENDBRANCH  10  14
BRANCH  11  17
HETATM   17  O   UNL     1      -6.365  -9.903  -0.660  1.00  0.00    -0.348 OA
BRANCH  17  18
HETATM   18  C   UNL     1      -7.471 -10.475   0.027  1.00  0.00     0.296 C 
HETATM   19  O   UNL     1      -7.988 -11.563  -0.733  1.00  0.00    -0.351 OA
HETATM   20  C   UNL     1      -9.415 -11.725  -0.740  1.00  0.00     0.150 C 
HETATM   21  C   UNL     1     -10.022 -11.422   0.626  1.00  0.00     0.068 C 
HETATM   22  C   UNL     1      -9.647 -10.026   1.141  1.00  0.00     0.158 C 
HETATM   23  C   UNL     1      -8.487  -9.347   0.367  1.00  0.00     0.303 C 
BRANCH  20  24
HETATM   24  C   UNL     1      -9.744 -13.161  -1.188  1.00  0.00     0.196 C 
BRANCH  24  25
HETATM   25  O   UNL     1      -8.564 -13.961  -1.146  1.00  0.00    -0.398 OA
HETATM   26  H   UNL     1      -8.594 -14.481  -0.324  1.00  0.00     0.209 HD
ENDBRANCH  24  25
ENDBRANCH  20  24
BRANCH  22  27
HETATM   27  O   UNL     1     -10.808  -9.186   1.121  1.00  0.00    -0.393 OA
HETATM   28  H   UNL     1     -11.326  -9.489   0.345  1.00  0.00     0.210 HD
ENDBRANCH  22  27
BRANCH  23  29
HETATM   29  N   UNL     1      -9.073  -8.566  -0.760  1.00  0.00     0.097 N 
HETATM   30  H   UNL     1      -8.495  -8.763  -1.583  1.00  0.00     0.316 HD
BRANCH  29  31
HETATM   31  C   UNL     1      -9.040  -7.098  -0.638  1.00  0.00     0.296 C 
BRANCH  31  32
HETATM   32  C   UNL     1      -7.876  -6.493   0.250  1.00  0.00     0.120 C 
BRANCH  32  33
HETATM   33  C   UNL     1      -8.421  -6.197   1.692  1.00  0.00     0.053 C 
BRANCH  33  34
HETATM   34  C   UNL     1      -7.461  -5.701   2.847  1.00  0.00     0.094 C 
BRANCH  34  35
HETATM   35  C   UNL     1      -8.295  -4.722   3.803  1.00  0.00     0.051 C 
BRANCH  35  36
HETATM   36  C   UNL     1      -7.927  -4.429   5.299  1.00  0.00     0.094 C 
BRANCH  36  37
HETATM   37  C   UNL     1      -8.660  -3.177   5.898  1.00  0.00     0.051 C 
BRANCH  37  38
HETATM   38  C   UNL     1      -8.137  -2.685   7.282  1.00  0.00     0.094 C 
BRANCH  38  39
HETATM   39  C   UNL     1      -7.220  -1.416   7.162  1.00  0.00     0.051 C 
BRANCH  39  40
HETATM   40  C   UNL     1      -5.779  -1.477   6.582  1.00  0.00     0.089 C 
HETATM   41  C   UNL     1      -5.114  -2.798   7.011  1.00  0.00     0.033 C 
BRANCH  40  42
HETATM   42  N   UNL     1      -5.655  -1.356   5.138  1.00  0.00    -0.334 N 
HETATM   43  C   UNL     1      -6.370  -0.485   4.357  1.00  0.00     0.210 A 
HETATM   44  N   UNL     1      -6.032  -0.583   3.093  1.00  0.00    -0.254 NA
HETATM   45  C   UNL     1      -5.054  -1.542   3.057  1.00  0.00     0.150 A 
HETATM   46  C   UNL     1      -4.788  -2.025   4.319  1.00  0.00     0.082 A 
ENDBRANCH  40  42
ENDBRANCH  39  40
ENDBRANCH  38  39
BRANCH  38  47
HETATM   47  N   UNL     1      -9.098  -2.689   8.375  1.00  0.00    -0.339 N 
HETATM   48  C   UNL     1      -9.339  -3.722   9.240  1.00  0.00     0.209 C 
HETATM   49  N   UNL     1     -10.385  -3.494   9.997  1.00  0.00    -0.254 NA
HETATM   50  C   UNL     1     -10.738  -2.205   9.740  1.00  0.00     0.142 C 
HETATM   51  C   UNL     1      -9.911  -1.644   8.787  1.00  0.00     0.026 C 
HETATM   52  C   UNL     1      -9.855  -0.226   8.356  1.00  0.00     0.070 C 
ENDBRANCH  38  47
ENDBRANCH  37  38
ENDBRANCH  36  37
BRANCH  36  53
HETATM   53  N   UNL     1      -8.233  -5.568   6.171  1.00  0.00    -0.345 N 
HETATM   54  C   UNL     1      -7.380  -6.170   7.053  1.00  0.00     0.209 A 
HETATM   55  N   UNL     1      -8.000  -7.070   7.783  1.00  0.00    -0.255 NA
HETATM   56  C   UNL     1      -9.302  -7.044   7.372  1.00  0.00     0.135 A 
HETATM   57  C   UNL     1      -9.479  -6.094   6.395  1.00  0.00     0.111 A 
ENDBRANCH  36  53
ENDBRANCH  35  36
ENDBRANCH  34  35
BRANCH  34  58
HETATM   58  N   UNL     1      -6.513  -6.684   3.389  1.00  0.00    -0.339 N 
HETATM   59  C   UNL     1      -5.169  -6.675   3.081  1.00  0.00     0.209 C 
HETATM   60  N   UNL     1      -4.503  -7.673   3.599  1.00  0.00    -0.254 NA
HETATM   61  C   UNL     1      -5.451  -8.458   4.158  1.00  0.00     0.142 C 
HETATM   62  C   UNL     1      -6.718  -7.950   3.936  1.00  0.00     0.026 C 
HETATM   63  C   UNL     1      -7.973  -8.704   4.177  1.00  0.00     0.070 C 
ENDBRANCH  34  58
ENDBRANCH  33  34
ENDBRANCH  32  33
BRANCH  32  64
HETATM   64  N   UNL     1      -7.068  -5.440  -0.372  1.00  0.00    -0.344 N 
HETATM   65  C   UNL     1      -5.747  -5.119  -0.191  1.00  0.00     0.111 A 
HETATM   66  C   UNL     1      -5.496  -4.037  -0.998  1.00  0.00     0.135 A 
HETATM   67  N   UNL     1      -6.631  -3.651  -1.639  1.00  0.00    -0.255 NA
HETATM   68  C   UNL     1      -7.552  -4.499  -1.246  1.00  0.00     0.209 A 
ENDBRANCH  32  64
ENDBRANCH  31  32
ENDBRANCH  29  31
ENDBRANCH  23  29
ENDBRANCH  17  18
ENDBRANCH  11  17
BRANCH  12  69
HETATM   69  O   UNL     1      -4.175  -8.116  -0.613  1.00  0.00    -0.391 OA
HETATM   70  H   UNL     1      -3.862  -8.506  -1.453  1.00  0.00     0.210 HD
ENDBRANCH  12  69
BRANCH  13  71
HETATM   71  N   UNL     1      -2.180  -8.527   1.378  1.00  0.00     0.090 N 
HETATM   72  H   UNL     1      -2.772  -8.142   2.121  1.00  0.00     0.313 HD
HETATM   73  H   UNL     1      -2.212  -7.800   0.650  1.00  0.00     0.313 HD
ENDBRANCH  13  71
ENDBRANCH   7   8
ENDBRANCH   1   7
BRANCH   2  74
HETATM   74  C   UNL     1       0.348 -13.160  -0.126  1.00  0.00     0.198 C 
BRANCH  74  75
HETATM   75  O   UNL     1      -0.890 -13.343   0.550  1.00  0.00    -0.398 OA
HETATM   76  H   UNL     1      -1.607 -13.111  -0.065  1.00  0.00     0.209 HD
ENDBRANCH  74  75
ENDBRANCH   2  74
BRANCH   3  77
HETATM   77  O   UNL     1       1.245  -8.370   0.136  1.00  0.00    -0.391 OA
HETATM   78  H   UNL     1       1.487  -7.797  -0.612  1.00  0.00     0.210 HD
ENDBRANCH   3  77
BRANCH   4  79
HETATM   79  N   UNL     1       1.552  -9.107  -2.615  1.00  0.00     0.097 N 
HETATM   80  H   UNL     1       0.794  -8.585  -2.185  1.00  0.00     0.316 HD
BRANCH  79  81
HETATM   81  C   UNL     1       2.289  -8.288  -3.594  1.00  0.00     0.296 C 
BRANCH  81  82
HETATM   82  C   UNL     1       3.604  -7.516  -3.047  1.00  0.00     0.120 C 
BRANCH  82  83
HETATM   83  N   UNL     1       4.845  -8.257  -3.267  1.00  0.00    -0.344 N 
HETATM   84  C   UNL     1       5.266  -8.895  -4.406  1.00  0.00     0.111 A 
HETATM   85  C   UNL     1       6.475  -9.469  -4.088  1.00  0.00     0.135 A 
HETATM   86  N   UNL     1       6.786  -9.236  -2.778  1.00  0.00    -0.255 NA
HETATM   87  C   UNL     1       5.779  -8.539  -2.305  1.00  0.00     0.209 A 
ENDBRANCH  82  83
BRANCH  82  88
HETATM   88  C   UNL     1       3.604  -6.009  -3.500  1.00  0.00     0.053 C 
BRANCH  88  89
HETATM   89  C   UNL     1       3.390  -5.469  -4.979  1.00  0.00     0.094 C 
BRANCH  89  90
HETATM   90  C   UNL     1       1.975  -4.794  -5.296  1.00  0.00     0.051 C 
BRANCH  90  91
HETATM   91  C   UNL     1       1.272  -3.854  -4.209  1.00  0.00     0.094 C 
BRANCH  91  92
HETATM   92  N   UNL     1       2.067  -2.662  -3.892  1.00  0.00    -0.345 N 
HETATM   93  C   UNL     1       3.013  -2.548  -2.908  1.00  0.00     0.111 A 
HETATM   94  C   UNL     1       3.294  -1.204  -2.829  1.00  0.00     0.135 A 
HETATM   95  N   UNL     1       2.535  -0.500  -3.720  1.00  0.00    -0.255 NA
HETATM   96  C   UNL     1       1.817  -1.398  -4.355  1.00  0.00     0.209 A 
ENDBRANCH  91  92
BRANCH  91  97
HETATM   97  C   UNL     1       0.909  -4.548  -2.839  1.00  0.00     0.051 C 
BRANCH  97  98
HETATM   98  C   UNL     1      -0.136  -3.826  -1.900  1.00  0.00     0.094 C 
BRANCH  98  99
HETATM   99  C   UNL     1      -1.416  -4.739  -1.663  1.00  0.00     0.051 C 
BRANCH  99 100
HETATM  100  C   UNL     1      -2.452  -5.074  -2.783  1.00  0.00     0.089 C 
HETATM  101  C   UNL     1      -2.554  -3.899  -3.774  1.00  0.00     0.033 C 
BRANCH 100 102
HETATM  102  N   UNL     1      -2.183  -6.279  -3.559  1.00  0.00    -0.334 N 
HETATM  103  C   UNL     1      -1.668  -7.462  -3.099  1.00  0.00     0.082 A 
HETATM  104  C   UNL     1      -1.607  -8.273  -4.210  1.00  0.00     0.150 A 
HETATM  105  N   UNL     1      -2.029  -7.606  -5.331  1.00  0.00    -0.254 NA
HETATM  106  C   UNL     1      -2.375  -6.411  -4.910  1.00  0.00     0.210 A 
ENDBRANCH 100 102
ENDBRANCH  99 100
ENDBRANCH  98  99
BRANCH  98 107
HETATM  107  N   UNL     1       0.339  -3.083  -0.740  1.00  0.00    -0.339 N 
HETATM  108  C   UNL     1       0.241  -1.736  -0.527  1.00  0.00     0.209 C 
HETATM  109  N   UNL     1       1.217  -1.297   0.236  1.00  0.00    -0.254 NA
HETATM  110  C   UNL     1       1.794  -2.416   0.752  1.00  0.00     0.142 C 
HETATM  111  C   UNL     1       1.168  -3.547   0.269  1.00  0.00     0.026 C 
HETATM  112  C   UNL     1       1.262  -4.924   0.795  1.00  0.00     0.070 C 
ENDBRANCH  98 107
ENDBRANCH  97  98
ENDBRANCH  91  97
ENDBRANCH  90  91
ENDBRANCH  89  90
BRANCH  89 113
HETATM  113  N   UNL     1       4.575  -4.995  -5.718  1.00  0.00    -0.339 N 
HETATM  114  C   UNL     1       5.376  -5.516  -6.716  1.00  0.00     0.026 C 
HETATM  115  C   UNL     1       6.292  -4.517  -7.010  1.00  0.00     0.142 C 
HETATM  116  C   UNL     1       5.323  -6.805  -7.430  1.00  0.00     0.070 C 
HETATM  117  N   UNL     1       5.973  -3.356  -6.389  1.00  0.00    -0.254 NA
HETATM  118  C   UNL     1       4.910  -3.651  -5.705  1.00  0.00     0.209 C 
ENDBRANCH  89 113
ENDBRANCH  88  89
ENDBRANCH  82  88
ENDBRANCH  81  82
ENDBRANCH  79  81
ENDBRANCH   4  79
BRANCH   5 119
HETATM  119  O   UNL     1       3.750 -11.762  -2.298  1.00  0.00    -0.348 OA
BRANCH 119 120
HETATM  120  C   UNL     1       4.186 -13.125  -2.000  1.00  0.00     0.186 C 
HETATM  121  C   UNL     1       4.226 -14.020  -3.265  1.00  0.00     0.179 C 
HETATM  122  O   UNL     1       5.561 -14.375  -3.659  1.00  0.00    -0.349 OA
HETATM  123  C   UNL     1       6.360 -15.050  -2.682  1.00  0.00     0.296 C 
HETATM  124  C   UNL     1       6.200 -14.460  -1.241  1.00  0.00     0.303 C 
HETATM  125  C   UNL     1       5.550 -13.059  -1.284  1.00  0.00     0.187 C 
BRANCH 121 126
HETATM  126  C   UNL     1       3.393 -15.306  -3.086  1.00  0.00     0.198 C 
BRANCH 126 127
HETATM  127  O   UNL     1       2.146 -15.033  -2.456  1.00  0.00    -0.398 OA
HETATM  128  H   UNL     1       1.810 -14.185  -2.808  1.00  0.00     0.209 HD
ENDBRANCH 126 127
ENDBRANCH 121 126
BRANCH 123 129
HETATM  129  O   UNL     1       7.725 -14.945  -3.107  1.00  0.00    -0.348 OA
BRANCH 129 130
HETATM  130  C   UNL     1       8.300 -16.135  -3.673  1.00  0.00     0.186 C 
HETATM  131  C   UNL     1       9.808 -15.933  -3.959  1.00  0.00     0.176 C 
HETATM  132  O   UNL     1      10.605 -17.094  -3.613  1.00  0.00    -0.379 OA
HETATM  133  C   UNL     1      10.013 -18.335  -4.001  1.00  0.00     0.206 C 
HETATM  134  C   UNL     1       8.709 -18.609  -3.220  1.00  0.00     0.272 C 
HETATM  135  C   UNL     1       8.122 -17.290  -2.659  1.00  0.00     0.184 C 
BRANCH 131 136
HETATM  136  C   UNL     1      10.101 -15.558  -5.418  1.00  0.00     0.198 C 
BRANCH 136 137
HETATM  137  O   UNL     1      10.539 -14.202  -5.495  1.00  0.00    -0.398 OA
HETATM  138  H   UNL     1      10.955 -13.997  -4.635  1.00  0.00     0.209 HD
ENDBRANCH 136 137
ENDBRANCH 131 136
BRANCH 134 139
HETATM  139  N   UNL     1       8.880 -19.595  -2.132  1.00  0.00     0.087 N 
HETATM  140  H   UNL     1       7.978 -19.679  -1.647  1.00  0.00     0.313 HD
HETATM  141  H   UNL     1       9.528 -19.254  -1.424  1.00  0.00     0.313 HD
ENDBRANCH 134 139
BRANCH 135 142
HETATM  142  O   UNL     1       8.759 -16.987  -1.399  1.00  0.00    -0.391 OA
HETATM  143  H   UNL     1       8.968 -16.033  -1.408  1.00  0.00     0.210 HD
ENDBRANCH 135 142
ENDBRANCH 129 130
ENDBRANCH 123 129
BRANCH 124 144
HETATM  144  N   UNL     1       7.461 -14.471  -0.463  1.00  0.00     0.090 N 
HETATM  145  H   UNL     1       8.253 -14.404  -1.103  1.00  0.00     0.313 HD
HETATM  146  H   UNL     1       7.540 -15.431  -0.098  1.00  0.00     0.313 HD
ENDBRANCH 124 144
BRANCH 125 147
HETATM  147  O   UNL     1       6.425 -12.095  -1.869  1.00  0.00    -0.391 OA
HETATM  148  H   UNL     1       5.860 -11.395  -2.252  1.00  0.00     0.210 HD
ENDBRANCH 125 147
ENDBRANCH 119 120
ENDBRANCH   5 119
TORSDOF 58
ENDMDL
MODEL 8
REMARK VINA RESULT:      -5.6      8.823     15.740
REMARK WARNING: 32 MAX_TORS EXCEEDED!!!
REMARK  58 active torsions:
REMARK  status: ('A' for Active; 'I' for Inactive)
REMARK    1  A    between atoms: C_1  and  O_30 
REMARK    2  A    between atoms: C_2  and  C_6 
REMARK    3  A    between atoms: C_3  and  O_9 
REMARK    4  A    between atoms: C_4  and  N_11 
REMARK    5  A    between atoms: C_5  and  O_12 
REMARK    6  A    between atoms: C_6  and  O_7 
REMARK    7  A    between atoms: N_11  and  C_118 
REMARK    8  A    between atoms: O_12  and  C_20 
REMARK    9  A    between atoms: O_14  and  C_18 
REMARK   10  A    between atoms: C_16  and  C_23 
REMARK   11  A    between atoms: O_17  and  C_23 
REMARK   12  A    between atoms: O_19  and  C_22 
REMARK   13  A    between atoms: O_19  and  C_42 
REMARK   14  A    between atoms: N_21  and  C_24 
REMARK   15  A    between atoms: O_26  and  C_29 
REMARK   16  A    between atoms: C_28  and  C_34 
REMARK   17  A    between atoms: O_30  and  C_33 
REMARK   18  A    between atoms: C_31  and  O_53 
REMARK   19  A    between atoms: N_32  and  C_35 
REMARK   20  A    between atoms: C_34  and  O_65 
REMARK   21  A    between atoms: O_37  and  C_41 
REMARK   22  A    between atoms: C_39  and  C_45 
REMARK   23  A    between atoms: O_40  and  C_45 
REMARK   24  A    between atoms: N_43  and  C_46 
REMARK   25  A    between atoms: O_48  and  C_52 
REMARK   26  A    between atoms: C_50  and  C_57 
REMARK   27  A    between atoms: O_51  and  C_57 
REMARK   28  A    between atoms: O_53  and  C_56 
REMARK   29  A    between atoms: N_55  and  C_58 
REMARK   30  A    between atoms: N_55  and  C_71 
REMARK   31  A    between atoms: C_71  and  C_73 
REMARK   32  A    between atoms: C_73  and  C_74 
REMARK   33  A    between atoms: C_73  and  N_87 
REMARK   34  A    between atoms: C_74  and  C_75 
REMARK   35  A    between atoms: C_75  and  C_76 
REMARK   36  A    between atoms: C_75  and  N_101 
REMARK   37  A    between atoms: C_76  and  C_77 
REMARK   38  A    between atoms: C_77  and  C_78 
REMARK   39  A    between atoms: C_77  and  N_91 
REMARK   40  A    between atoms: C_78  and  C_79 
REMARK   41  A    between atoms: C_79  and  C_80 
REMARK   42  A    between atoms: C_79  and  N_106 
REMARK   43  A    between atoms: C_80  and  C_81 
REMARK   44  A    between atoms: C_81  and  N_96 
REMARK   45  A    between atoms: N_113  and  C_119 
REMARK   46  A    between atoms: C_118  and  C_119 
REMARK   47  A    between atoms: C_119  and  C_126 
REMARK   48  A    between atoms: N_122  and  C_128 
REMARK   49  A    between atoms: C_124  and  C_128 
REMARK   50  A    between atoms: C_124  and  C_130 
REMARK   51  A    between atoms: N_125  and  C_135 
REMARK   52  A    between atoms: C_126  and  C_130 
REMARK   53  A    between atoms: C_128  and  C_132 
REMARK   54  A    between atoms: N_129  and  C_130 
REMARK   55  A    between atoms: C_132  and  C_137 
REMARK   56  A    between atoms: C_135  and  C_136 
REMARK   57  A    between atoms: C_136  and  C_137 
REMARK   58  A    between atoms: C_137  and  N_140 
ROOT
HETATM    1  C   UNL     1      -6.769  -7.269   4.029  1.00  0.00     0.186 C 
HETATM    2  C   UNL     1      -8.000  -6.298   3.859  1.00  0.00     0.179 C 
HETATM    3  C   UNL     1      -6.208  -7.380   5.483  1.00  0.00     0.188 C 
HETATM    4  C   UNL     1      -7.287  -7.146   6.578  1.00  0.00     0.306 C 
HETATM    5  C   UNL     1      -7.797  -5.727   6.166  1.00  0.00     0.296 C 
HETATM    6  O   UNL     1      -8.680  -5.883   5.075  1.00  0.00    -0.349 OA
ENDROOT
BRANCH   1   7
HETATM    7  O   UNL     1      -7.113  -8.573   3.523  1.00  0.00    -0.348 OA
BRANCH   7   8
HETATM    8  C   UNL     1      -6.326  -9.002   2.395  1.00  0.00     0.296 C 
HETATM    9  O   UNL     1      -5.411  -7.945   2.093  1.00  0.00    -0.349 OA
HETATM   10  C   UNL     1      -4.571  -8.158   0.939  1.00  0.00     0.179 C 
HETATM   11  C   UNL     1      -5.377  -8.611  -0.300  1.00  0.00     0.186 C 
HETATM   12  C   UNL     1      -6.886  -8.473  -0.039  1.00  0.00     0.187 C 
HETATM   13  C   UNL     1      -7.262  -9.328   1.180  1.00  0.00     0.303 C 
BRANCH  10  14
HETATM   14  C   UNL     1      -3.430  -9.140   1.269  1.00  0.00     0.198 C 
BRANCH  14  15
HETATM   15  O   UNL     1      -2.278  -8.466   1.770  1.00  0.00    -0.398 OA
HETATM   16  H   UNL     1      -1.825  -8.056   1.010  1.00  0.00     0.209 HD
ENDBRANCH  14  15
ENDBRANCH  10  14
BRANCH  11  17
HETATM   17  O   UNL     1      -5.075  -7.833  -1.461  1.00  0.00    -0.348 OA
BRANCH  17  18
HETATM   18  C   UNL     1      -4.584  -8.569  -2.575  1.00  0.00     0.296 C 
HETATM   19  O   UNL     1      -4.637  -9.961  -2.281  1.00  0.00    -0.351 OA
HETATM   20  C   UNL     1      -3.550 -10.765  -2.767  1.00  0.00     0.150 C 
HETATM   21  C   UNL     1      -3.095 -10.318  -4.152  1.00  0.00     0.068 C 
HETATM   22  C   UNL     1      -2.719  -8.831  -4.197  1.00  0.00     0.158 C 
HETATM   23  C   UNL     1      -3.183  -8.015  -2.963  1.00  0.00     0.303 C 
BRANCH  20  24
HETATM   24  C   UNL     1      -3.996 -12.239  -2.778  1.00  0.00     0.196 C 
BRANCH  24  25
HETATM   25  O   UNL     1      -4.345 -12.647  -1.456  1.00  0.00    -0.398 OA
HETATM   26  H   UNL     1      -4.957 -11.982  -1.099  1.00  0.00     0.209 HD
ENDBRANCH  24  25
ENDBRANCH  20  24
BRANCH  22  27
HETATM   27  O   UNL     1      -1.301  -8.705  -4.364  1.00  0.00    -0.393 OA
HETATM   28  H   UNL     1      -1.014  -9.563  -4.743  1.00  0.00     0.210 HD
ENDBRANCH  22  27
BRANCH  23  29
HETATM   29  N   UNL     1      -2.100  -8.063  -1.938  1.00  0.00     0.097 N 
HETATM   30  H   UNL     1      -2.484  -8.564  -1.132  1.00  0.00     0.316 HD
BRANCH  29  31
HETATM   31  C   UNL     1      -1.654  -6.772  -1.384  1.00  0.00     0.296 C 
BRANCH  31  32
HETATM   32  C   UNL     1      -1.272  -5.650  -2.435  1.00  0.00     0.120 C 
BRANCH  32  33
HETATM   33  C   UNL     1       0.248  -5.780  -2.806  1.00  0.00     0.053 C 
BRANCH  33  34
HETATM   34  C   UNL     1       1.321  -6.215  -1.730  1.00  0.00     0.094 C 
BRANCH  34  35
HETATM   35  C   UNL     1       2.433  -7.104  -2.465  1.00  0.00     0.051 C 
BRANCH  35  36
HETATM   36  C   UNL     1       2.326  -8.656  -2.669  1.00  0.00     0.094 C 
BRANCH  36  37
HETATM   37  C   UNL     1       1.187  -9.328  -1.823  1.00  0.00     0.051 C 
BRANCH  37  38
HETATM   38  C   UNL     1       1.529 -10.724  -1.217  1.00  0.00     0.094 C 
BRANCH  38  39
HETATM   39  C   UNL     1       2.863 -10.709  -0.388  1.00  0.00     0.051 C 
BRANCH  39  40
HETATM   40  C   UNL     1       4.159 -11.412  -0.879  1.00  0.00     0.089 C 
HETATM   41  C   UNL     1       3.784 -12.579  -1.810  1.00  0.00     0.033 C 
BRANCH  40  42
HETATM   42  N   UNL     1       5.129 -10.576  -1.570  1.00  0.00    -0.334 N 
HETATM   43  C   UNL     1       5.419 -10.646  -2.908  1.00  0.00     0.210 A 
HETATM   44  N   UNL     1       6.318  -9.755  -3.254  1.00  0.00    -0.254 NA
HETATM   45  C   UNL     1       6.610  -9.075  -2.100  1.00  0.00     0.150 A 
HETATM   46  C   UNL     1       5.869  -9.554  -1.043  1.00  0.00     0.082 A 
ENDBRANCH  40  42
ENDBRANCH  39  40
ENDBRANCH  38  39
BRANCH  38  47
HETATM   47  N   UNL     1       0.418 -11.469  -0.643  1.00  0.00    -0.339 N 
HETATM   48  C   UNL     1      -0.139 -11.271   0.592  1.00  0.00     0.209 C 
HETATM   49  N   UNL     1      -0.999 -12.213   0.897  1.00  0.00    -0.254 NA
HETATM   50  C   UNL     1      -1.135 -12.955  -0.235  1.00  0.00     0.142 C 
HETATM   51  C   UNL     1      -0.322 -12.476  -1.243  1.00  0.00     0.026 C 
HETATM   52  C   UNL     1      -0.300 -12.893  -2.667  1.00  0.00     0.070 C 
ENDBRANCH  38  47
ENDBRANCH  37  38
ENDBRANCH  36  37
BRANCH  36  53
HETATM   53  N   UNL     1       2.088  -9.009  -4.072  1.00  0.00    -0.345 N 
HETATM   54  C   UNL     1       1.627 -10.206  -4.543  1.00  0.00     0.209 A 
HETATM   55  N   UNL     1       1.392 -10.155  -5.835  1.00  0.00    -0.255 NA
HETATM   56  C   UNL     1       1.697  -8.880  -6.215  1.00  0.00     0.135 A 
HETATM   57  C   UNL     1       2.099  -8.138  -5.131  1.00  0.00     0.111 A 
ENDBRANCH  36  53
ENDBRANCH  35  36
ENDBRANCH  34  35
BRANCH  34  58
HETATM   58  N   UNL     1       1.681  -5.218  -0.713  1.00  0.00    -0.339 N 
HETATM   59  C   UNL     1       1.050  -5.137   0.511  1.00  0.00     0.209 C 
HETATM   60  N   UNL     1       1.458  -4.138   1.250  1.00  0.00    -0.254 NA
HETATM   61  C   UNL     1       2.290  -3.441   0.445  1.00  0.00     0.142 C 
HETATM   62  C   UNL     1       2.352  -4.001  -0.819  1.00  0.00     0.026 C 
HETATM   63  C   UNL     1       2.951  -3.331  -2.000  1.00  0.00     0.070 C 
ENDBRANCH  34  58
ENDBRANCH  33  34
ENDBRANCH  32  33
BRANCH  32  64
HETATM   64  N   UNL     1      -1.762  -4.299  -2.147  1.00  0.00    -0.344 N 
HETATM   65  C   UNL     1      -1.069  -3.156  -1.840  1.00  0.00     0.111 A 
HETATM   66  C   UNL     1      -2.008  -2.174  -1.640  1.00  0.00     0.135 A 
HETATM   67  N   UNL     1      -3.261  -2.683  -1.771  1.00  0.00    -0.255 NA
HETATM   68  C   UNL     1      -3.087  -3.949  -2.069  1.00  0.00     0.209 A 
ENDBRANCH  32  64
ENDBRANCH  31  32
ENDBRANCH  29  31
ENDBRANCH  23  29
ENDBRANCH  17  18
ENDBRANCH  11  17
BRANCH  12  69
HETATM   69  O   UNL     1      -7.274  -7.104   0.159  1.00  0.00    -0.391 OA
HETATM   70  H   UNL     1      -8.084  -7.105   0.708  1.00  0.00     0.210 HD
ENDBRANCH  12  69
BRANCH  13  71
HETATM   71  N   UNL     1      -8.707  -9.195   1.457  1.00  0.00     0.090 N 
HETATM   72  H   UNL     1      -8.862  -9.692   2.339  1.00  0.00     0.313 HD
HETATM   73  H   UNL     1      -9.172  -9.795   0.762  1.00  0.00     0.313 HD
ENDBRANCH  13  71
ENDBRANCH   7   8
ENDBRANCH   1   7
BRANCH   2  74
HETATM   74  C   UNL     1      -7.559  -5.041   3.068  1.00  0.00     0.198 C 
BRANCH  74  75
HETATM   75  O   UNL     1      -6.306  -5.254   2.429  1.00  0.00    -0.398 OA
HETATM   76  H   UNL     1      -5.728  -5.731   3.049  1.00  0.00     0.209 HD
ENDBRANCH  74  75
ENDBRANCH   2  74
BRANCH   3  77
HETATM   77  O   UNL     1      -5.457  -8.581   5.688  1.00  0.00    -0.391 OA
HETATM   78  H   UNL     1      -6.057  -9.263   6.034  1.00  0.00     0.210 HD
ENDBRANCH   3  77
BRANCH   4  79
HETATM   79  N   UNL     1      -8.154  -8.365   6.627  1.00  0.00     0.097 N 
HETATM   80  H   UNL     1      -7.723  -9.110   6.088  1.00  0.00     0.316 HD
BRANCH  79  81
HETATM   81  C   UNL     1      -8.653  -8.851   7.925  1.00  0.00     0.296 C 
BRANCH  81  82
HETATM   82  C   UNL     1     -10.236  -9.185   8.012  1.00  0.00     0.120 C 
BRANCH  82  83
HETATM   83  N   UNL     1     -11.000  -8.187   8.758  1.00  0.00    -0.344 N 
HETATM   84  C   UNL     1     -10.701  -6.864   8.962  1.00  0.00     0.111 A 
HETATM   85  C   UNL     1     -11.711  -6.371   9.756  1.00  0.00     0.135 A 
HETATM   86  N   UNL     1     -12.594  -7.362  10.078  1.00  0.00    -0.255 NA
HETATM   87  C   UNL     1     -12.126  -8.442   9.497  1.00  0.00     0.209 A 
ENDBRANCH  82  83
BRANCH  82  88
HETATM   88  C   UNL     1     -10.808  -9.586   6.601  1.00  0.00     0.053 C 
BRANCH  88  89
HETATM   89  C   UNL     1     -12.099 -10.470   6.323  1.00  0.00     0.094 C 
BRANCH  89  90
HETATM   90  C   UNL     1     -12.519 -11.502   7.470  1.00  0.00     0.051 C 
BRANCH  90  91
HETATM   91  C   UNL     1     -11.441 -12.520   8.070  1.00  0.00     0.094 C 
BRANCH  91  92
HETATM   92  N   UNL     1     -11.642 -13.897   7.603  1.00  0.00    -0.345 N 
HETATM   93  C   UNL     1     -10.665 -14.813   7.313  1.00  0.00     0.111 A 
HETATM   94  C   UNL     1     -11.314 -15.849   6.684  1.00  0.00     0.135 A 
HETATM   95  N   UNL     1     -12.649 -15.580   6.567  1.00  0.00    -0.255 NA
HETATM   96  C   UNL     1     -12.823 -14.410   7.138  1.00  0.00     0.209 A 
ENDBRANCH  91  92
BRANCH  91  97
HETATM   97  C   UNL     1     -11.352 -12.571   9.644  1.00  0.00     0.051 C 
BRANCH  97  98
HETATM   98  C   UNL     1     -12.705 -12.612  10.458  1.00  0.00     0.094 C 
BRANCH  98  99
HETATM   99  C   UNL     1     -12.861 -13.991  11.235  1.00  0.00     0.051 C 
BRANCH  99 100
HETATM  100  C   UNL     1     -14.207 -14.474  11.865  1.00  0.00     0.089 C 
HETATM  101  C   UNL     1     -14.156 -15.994  12.112  1.00  0.00     0.033 C 
BRANCH 100 102
HETATM  102  N   UNL     1     -14.586 -13.838  13.121  1.00  0.00    -0.334 N 
HETATM  103  C   UNL     1     -13.779 -13.588  14.198  1.00  0.00     0.082 A 
HETATM  104  C   UNL     1     -14.603 -12.981  15.120  1.00  0.00     0.150 A 
HETATM  105  N   UNL     1     -15.887 -12.893  14.650  1.00  0.00    -0.254 NA
HETATM  106  C   UNL     1     -15.848 -13.412  13.444  1.00  0.00     0.210 A 
ENDBRANCH 100 102
ENDBRANCH  99 100
ENDBRANCH  98  99
BRANCH  98 107
HETATM  107  N   UNL     1     -13.141 -11.423  11.180  1.00  0.00    -0.339 N 
HETATM  108  C   UNL     1     -12.504 -10.815  12.226  1.00  0.00     0.209 C 
HETATM  109  N   UNL     1     -13.355 -10.195  13.013  1.00  0.00    -0.254 NA
HETATM  110  C   UNL     1     -14.523 -10.165  12.316  1.00  0.00     0.142 C 
HETATM  111  C   UNL     1     -14.377 -10.802  11.100  1.00  0.00     0.026 C 
HETATM  112  C   UNL     1     -15.274 -10.729   9.931  1.00  0.00     0.070 C 
ENDBRANCH  98 107
ENDBRANCH  97  98
ENDBRANCH  91  97
ENDBRANCH  90  91
ENDBRANCH  89  90
BRANCH  89 113
HETATM  113  N   UNL     1     -13.157  -9.894   5.474  1.00  0.00    -0.339 N 
HETATM  114  C   UNL     1     -13.910  -8.735   5.502  1.00  0.00     0.026 C 
HETATM  115  C   UNL     1     -14.692  -8.777   4.358  1.00  0.00     0.142 C 
HETATM  116  C   UNL     1     -13.918  -7.606   6.450  1.00  0.00     0.070 C 
HETATM  117  N   UNL     1     -14.319  -9.793   3.541  1.00  0.00    -0.254 NA
HETATM  118  C   UNL     1     -13.359 -10.377   4.191  1.00  0.00     0.209 C 
ENDBRANCH  89 113
ENDBRANCH  88  89
ENDBRANCH  82  88
ENDBRANCH  81  82
ENDBRANCH  79  81
ENDBRANCH   4  79
BRANCH   5 119
HETATM  119  O   UNL     1      -8.311  -4.968   7.272  1.00  0.00    -0.348 OA
BRANCH 119 120
HETATM  120  C   UNL     1      -7.574  -3.725   7.493  1.00  0.00     0.186 C 
HETATM  121  C   UNL     1      -6.387  -3.561   6.510  1.00  0.00     0.179 C 
HETATM  122  O   UNL     1      -6.591  -2.507   5.555  1.00  0.00    -0.349 OA
HETATM  123  C   UNL     1      -6.837  -1.200   6.086  1.00  0.00     0.296 C 
HETATM  124  C   UNL     1      -7.799  -1.208   7.321  1.00  0.00     0.303 C 
HETATM  125  C   UNL     1      -8.565  -2.546   7.418  1.00  0.00     0.187 C 
BRANCH 121 126
HETATM  126  C   UNL     1      -5.056  -3.321   7.251  1.00  0.00     0.198 C 
BRANCH 126 127
HETATM  127  O   UNL     1      -3.991  -3.075   6.338  1.00  0.00    -0.398 OA
HETATM  128  H   UNL     1      -3.937  -2.111   6.190  1.00  0.00     0.209 HD
ENDBRANCH 126 127
ENDBRANCH 121 126
BRANCH 123 129
HETATM  129  O   UNL     1      -7.402  -0.416   5.028  1.00  0.00    -0.348 OA
BRANCH 129 130
HETATM  130  C   UNL     1      -6.592   0.673   4.552  1.00  0.00     0.186 C 
HETATM  131  C   UNL     1      -6.029   1.496   5.736  1.00  0.00     0.176 C 
HETATM  132  O   UNL     1      -4.648   1.893   5.537  1.00  0.00    -0.379 OA
HETATM  133  C   UNL     1      -4.366   2.350   4.213  1.00  0.00     0.206 C 
HETATM  134  C   UNL     1      -4.515   1.214   3.178  1.00  0.00     0.272 C 
HETATM  135  C   UNL     1      -5.418   0.084   3.735  1.00  0.00     0.184 C 
BRANCH 131 136
HETATM  136  C   UNL     1      -6.857   2.751   6.047  1.00  0.00     0.198 C 
BRANCH 136 137
HETATM  137  O   UNL     1      -7.436   2.644   7.347  1.00  0.00    -0.398 OA
HETATM  138  H   UNL     1      -6.692   2.537   7.972  1.00  0.00     0.209 HD
ENDBRANCH 136 137
ENDBRANCH 131 136
BRANCH 134 139
HETATM  139  N   UNL     1      -3.219   0.658   2.735  1.00  0.00     0.087 N 
HETATM  140  H   UNL     1      -3.414  -0.045   2.012  1.00  0.00     0.313 HD
HETATM  141  H   UNL     1      -2.762   0.143   3.485  1.00  0.00     0.313 HD
ENDBRANCH 134 139
BRANCH 135 142
HETATM  142  O   UNL     1      -4.616  -0.812   4.535  1.00  0.00    -0.391 OA
HETATM  143  H   UNL     1      -4.641  -0.474   5.450  1.00  0.00     0.210 HD
ENDBRANCH 135 142
ENDBRANCH 129 130
ENDBRANCH 123 129
BRANCH 124 144
HETATM  144  N   UNL     1      -8.705  -0.037   7.360  1.00  0.00     0.090 N 
HETATM  145  H   UNL     1      -8.861   0.302   6.411  1.00  0.00     0.313 HD
HETATM  146  H   UNL     1      -8.147   0.717   7.786  1.00  0.00     0.313 HD
ENDBRANCH 124 144
BRANCH 125 147
HETATM  147  O   UNL     1      -9.503  -2.691   6.352  1.00  0.00    -0.391 OA
HETATM  148  H   UNL     1     -10.090  -3.435   6.590  1.00  0.00     0.210 HD
ENDBRANCH 125 147
ENDBRANCH 119 120
ENDBRANCH   5 119
TORSDOF 58
ENDMDL
MODEL 9
REMARK VINA RESULT:      -5.6     20.428     27.652
REMARK WARNING: 32 MAX_TORS EXCEEDED!!!
REMARK  58 active torsions:
REMARK  status: ('A' for Active; 'I' for Inactive)
REMARK    1  A    between atoms: C_1  and  O_30 
REMARK    2  A    between atoms: C_2  and  C_6 
REMARK    3  A    between atoms: C_3  and  O_9 
REMARK    4  A    between atoms: C_4  and  N_11 
REMARK    5  A    between atoms: C_5  and  O_12 
REMARK    6  A    between atoms: C_6  and  O_7 
REMARK    7  A    between atoms: N_11  and  C_118 
REMARK    8  A    between atoms: O_12  and  C_20 
REMARK    9  A    between atoms: O_14  and  C_18 
REMARK   10  A    between atoms: C_16  and  C_23 
REMARK   11  A    between atoms: O_17  and  C_23 
REMARK   12  A    between atoms: O_19  and  C_22 
REMARK   13  A    between atoms: O_19  and  C_42 
REMARK   14  A    between atoms: N_21  and  C_24 
REMARK   15  A    between atoms: O_26  and  C_29 
REMARK   16  A    between atoms: C_28  and  C_34 
REMARK   17  A    between atoms: O_30  and  C_33 
REMARK   18  A    between atoms: C_31  and  O_53 
REMARK   19  A    between atoms: N_32  and  C_35 
REMARK   20  A    between atoms: C_34  and  O_65 
REMARK   21  A    between atoms: O_37  and  C_41 
REMARK   22  A    between atoms: C_39  and  C_45 
REMARK   23  A    between atoms: O_40  and  C_45 
REMARK   24  A    between atoms: N_43  and  C_46 
REMARK   25  A    between atoms: O_48  and  C_52 
REMARK   26  A    between atoms: C_50  and  C_57 
REMARK   27  A    between atoms: O_51  and  C_57 
REMARK   28  A    between atoms: O_53  and  C_56 
REMARK   29  A    between atoms: N_55  and  C_58 
REMARK   30  A    between atoms: N_55  and  C_71 
REMARK   31  A    between atoms: C_71  and  C_73 
REMARK   32  A    between atoms: C_73  and  C_74 
REMARK   33  A    between atoms: C_73  and  N_87 
REMARK   34  A    between atoms: C_74  and  C_75 
REMARK   35  A    between atoms: C_75  and  C_76 
REMARK   36  A    between atoms: C_75  and  N_101 
REMARK   37  A    between atoms: C_76  and  C_77 
REMARK   38  A    between atoms: C_77  and  C_78 
REMARK   39  A    between atoms: C_77  and  N_91 
REMARK   40  A    between atoms: C_78  and  C_79 
REMARK   41  A    between atoms: C_79  and  C_80 
REMARK   42  A    between atoms: C_79  and  N_106 
REMARK   43  A    between atoms: C_80  and  C_81 
REMARK   44  A    between atoms: C_81  and  N_96 
REMARK   45  A    between atoms: N_113  and  C_119 
REMARK   46  A    between atoms: C_118  and  C_119 
REMARK   47  A    between atoms: C_119  and  C_126 
REMARK   48  A    between atoms: N_122  and  C_128 
REMARK   49  A    between atoms: C_124  and  C_128 
REMARK   50  A    between atoms: C_124  and  C_130 
REMARK   51  A    between atoms: N_125  and  C_135 
REMARK   52  A    between atoms: C_126  and  C_130 
REMARK   53  A    between atoms: C_128  and  C_132 
REMARK   54  A    between atoms: N_129  and  C_130 
REMARK   55  A    between atoms: C_132  and  C_137 
REMARK   56  A    between atoms: C_135  and  C_136 
REMARK   57  A    between atoms: C_136  and  C_137 
REMARK   58  A    between atoms: C_137  and  N_140 
ROOT
HETATM    1  C   UNL     1      18.698 -13.498  20.259  1.00  0.00     0.186 C 
HETATM    2  C   UNL     1      17.396 -14.283  20.679  1.00  0.00     0.179 C 
HETATM    3  C   UNL     1      19.738 -14.327  19.440  1.00  0.00     0.188 C 
HETATM    4  C   UNL     1      19.089 -15.454  18.584  1.00  0.00     0.306 C 
HETATM    5  C   UNL     1      18.333 -16.246  19.699  1.00  0.00     0.296 C 
HETATM    6  O   UNL     1      17.144 -15.544  20.001  1.00  0.00    -0.349 OA
ENDROOT
BRANCH   1   7
HETATM    7  O   UNL     1      18.329 -12.306  19.540  1.00  0.00    -0.348 OA
BRANCH   7   8
HETATM    8  C   UNL     1      18.833 -11.083  20.112  1.00  0.00     0.296 C 
HETATM    9  O   UNL     1      19.412 -11.417  21.377  1.00  0.00    -0.349 OA
HETATM   10  C   UNL     1      19.918 -10.304  22.143  1.00  0.00     0.179 C 
HETATM   11  C   UNL     1      18.897  -9.150  22.250  1.00  0.00     0.186 C 
HETATM   12  C   UNL     1      17.524  -9.596  21.722  1.00  0.00     0.187 C 
HETATM   13  C   UNL     1      17.672 -10.040  20.259  1.00  0.00     0.303 C 
BRANCH  10  14
HETATM   14  C   UNL     1      21.269  -9.823  21.578  1.00  0.00     0.198 C 
BRANCH  14  15
HETATM   15  O   UNL     1      21.195  -8.484  21.095  1.00  0.00    -0.398 OA
HETATM   16  H   UNL     1      20.541  -8.010  21.642  1.00  0.00     0.209 HD
ENDBRANCH  14  15
ENDBRANCH  10  14
BRANCH  11  17
HETATM   17  O   UNL     1      18.709  -8.710  23.598  1.00  0.00    -0.348 OA
BRANCH  17  18
HETATM   18  C   UNL     1      18.747  -7.300  23.788  1.00  0.00     0.296 C 
HETATM   19  O   UNL     1      19.875  -6.763  23.107  1.00  0.00    -0.351 OA
HETATM   20  C   UNL     1      20.570  -5.687  23.757  1.00  0.00     0.150 C 
HETATM   21  C   UNL     1      19.605  -4.735  24.456  1.00  0.00     0.068 C 
HETATM   22  C   UNL     1      18.686  -5.454  25.452  1.00  0.00     0.158 C 
HETATM   23  C   UNL     1      18.674  -6.999  25.313  1.00  0.00     0.303 C 
BRANCH  20  24
HETATM   24  C   UNL     1      21.419  -4.945  22.708  1.00  0.00     0.196 C 
BRANCH  24  25
HETATM   25  O   UNL     1      21.882  -5.867  21.723  1.00  0.00    -0.398 OA
HETATM   26  H   UNL     1      21.452  -5.635  20.882  1.00  0.00     0.209 HD
ENDBRANCH  24  25
ENDBRANCH  20  24
BRANCH  22  27
HETATM   27  O   UNL     1      19.051  -5.085  26.787  1.00  0.00    -0.393 OA
HETATM   28  H   UNL     1      20.028  -4.997  26.766  1.00  0.00     0.210 HD
ENDBRANCH  22  27
BRANCH  23  29
HETATM   29  N   UNL     1      19.744  -7.554  26.191  1.00  0.00     0.097 N 
HETATM   30  H   UNL     1      20.365  -8.100  25.585  1.00  0.00     0.316 HD
BRANCH  29  31
HETATM   31  C   UNL     1      19.321  -8.509  27.230  1.00  0.00     0.296 C 
BRANCH  31  32
HETATM   32  C   UNL     1      18.988  -9.979  26.741  1.00  0.00     0.120 C 
BRANCH  32  33
HETATM   33  C   UNL     1      17.858 -10.586  27.646  1.00  0.00     0.053 C 
BRANCH  33  34
HETATM   34  C   UNL     1      16.407 -10.854  27.077  1.00  0.00     0.094 C 
BRANCH  34  35
HETATM   35  C   UNL     1      16.029  -9.654  26.086  1.00  0.00     0.051 C 
BRANCH  35  36
HETATM   36  C   UNL     1      15.115  -8.441  26.479  1.00  0.00     0.094 C 
BRANCH  36  37
HETATM   37  C   UNL     1      15.788  -7.442  27.485  1.00  0.00     0.051 C 
BRANCH  37  38
HETATM   38  C   UNL     1      14.863  -6.896  28.616  1.00  0.00     0.094 C 
BRANCH  38  39
HETATM   39  C   UNL     1      15.093  -7.627  29.987  1.00  0.00     0.051 C 
BRANCH  39  40
HETATM   40  C   UNL     1      16.040  -8.851  30.132  1.00  0.00     0.089 C 
HETATM   41  C   UNL     1      17.034  -8.592  31.278  1.00  0.00     0.033 C 
BRANCH  40  42
HETATM   42  N   UNL     1      15.404 -10.139  30.366  1.00  0.00    -0.334 N 
HETATM   43  C   UNL     1      15.984 -11.197  31.015  1.00  0.00     0.210 A 
HETATM   44  N   UNL     1      15.167 -12.220  31.096  1.00  0.00    -0.254 NA
HETATM   45  C   UNL     1      14.011 -11.803  30.489  1.00  0.00     0.150 A 
HETATM   46  C   UNL     1      14.127 -10.505  30.043  1.00  0.00     0.082 A 
ENDBRANCH  40  42
ENDBRANCH  39  40
ENDBRANCH  38  39
BRANCH  38  47
HETATM   47  N   UNL     1      14.695  -5.451  28.672  1.00  0.00    -0.339 N 
HETATM   48  C   UNL     1      13.539  -4.759  28.431  1.00  0.00     0.209 C 
HETATM   49  N   UNL     1      13.745  -3.465  28.379  1.00  0.00    -0.254 NA
HETATM   50  C   UNL     1      15.038  -3.292  28.765  1.00  0.00     0.142 C 
HETATM   51  C   UNL     1      15.644  -4.505  29.029  1.00  0.00     0.026 C 
HETATM   52  C   UNL     1      16.979  -4.740  29.630  1.00  0.00     0.070 C 
ENDBRANCH  38  47
ENDBRANCH  37  38
ENDBRANCH  36  37
BRANCH  36  53
HETATM   53  N   UNL     1      14.704  -7.663  25.306  1.00  0.00    -0.345 N 
HETATM   54  C   UNL     1      15.102  -7.865  24.014  1.00  0.00     0.209 A 
HETATM   55  N   UNL     1      14.446  -7.088  23.182  1.00  0.00    -0.255 NA
HETATM   56  C   UNL     1      13.583  -6.365  23.956  1.00  0.00     0.135 A 
HETATM   57  C   UNL     1      13.699  -6.729  25.275  1.00  0.00     0.111 A 
ENDBRANCH  36  53
ENDBRANCH  35  36
ENDBRANCH  34  35
BRANCH  34  58
HETATM   58  N   UNL     1      16.065 -12.248  26.765  1.00  0.00    -0.339 N 
HETATM   59  C   UNL     1      16.932 -13.103  26.117  1.00  0.00     0.209 C 
HETATM   60  N   UNL     1      16.419 -14.279  25.861  1.00  0.00    -0.254 NA
HETATM   61  C   UNL     1      15.122 -14.167  26.222  1.00  0.00     0.142 C 
HETATM   62  C   UNL     1      14.831 -12.888  26.662  1.00  0.00     0.026 C 
HETATM   63  C   UNL     1      13.456 -12.369  26.867  1.00  0.00     0.070 C 
ENDBRANCH  34  58
ENDBRANCH  33  34
ENDBRANCH  32  33
BRANCH  32  64
HETATM   64  N   UNL     1      20.137 -10.844  26.461  1.00  0.00    -0.344 N 
HETATM   65  C   UNL     1      21.115 -10.732  25.507  1.00  0.00     0.111 A 
HETATM   66  C   UNL     1      21.939 -11.819  25.663  1.00  0.00     0.135 A 
HETATM   67  N   UNL     1      21.476 -12.624  26.656  1.00  0.00    -0.255 NA
HETATM   68  C   UNL     1      20.402 -12.024  27.111  1.00  0.00     0.209 A 
ENDBRANCH  32  64
ENDBRANCH  31  32
ENDBRANCH  29  31
ENDBRANCH  23  29
ENDBRANCH  17  18
ENDBRANCH  11  17
BRANCH  12  69
HETATM   69  O   UNL     1      16.957 -10.649  22.520  1.00  0.00    -0.391 OA
HETATM   70  H   UNL     1      17.525 -10.757  23.309  1.00  0.00     0.210 HD
ENDBRANCH  12  69
BRANCH  13  71
HETATM   71  N   UNL     1      16.365 -10.490  19.738  1.00  0.00     0.090 N 
HETATM   72  H   UNL     1      16.491 -11.479  19.502  1.00  0.00     0.313 HD
HETATM   73  H   UNL     1      16.270 -10.037  18.819  1.00  0.00     0.313 HD
ENDBRANCH  13  71
ENDBRANCH   7   8
ENDBRANCH   1   7
BRANCH   2  74
HETATM   74  C   UNL     1      17.410 -14.522  22.210  1.00  0.00     0.198 C 
BRANCH  74  75
HETATM   75  O   UNL     1      17.362 -13.290  22.919  1.00  0.00    -0.398 OA
HETATM   76  H   UNL     1      16.893 -12.641  22.365  1.00  0.00     0.209 HD
ENDBRANCH  74  75
ENDBRANCH   2  74
BRANCH   3  77
HETATM   77  O   UNL     1      20.627 -13.498  18.686  1.00  0.00    -0.391 OA
HETATM   78  H   UNL     1      20.358 -12.571  18.805  1.00  0.00     0.210 HD
ENDBRANCH   3  77
BRANCH   4  79
HETATM   79  N   UNL     1      18.417 -14.805  17.416  1.00  0.00     0.097 N 
HETATM   80  H   UNL     1      19.101 -14.283  16.877  1.00  0.00     0.316 HD
BRANCH  79  81
HETATM   81  C   UNL     1      17.535 -15.604  16.547  1.00  0.00     0.296 C 
BRANCH  81  82
HETATM   82  C   UNL     1      18.137 -16.032  15.105  1.00  0.00     0.120 C 
BRANCH  82  83
HETATM   83  N   UNL     1      18.823 -17.322  15.121  1.00  0.00    -0.344 N 
HETATM   84  C   UNL     1      18.597 -18.396  15.944  1.00  0.00     0.111 A 
HETATM   85  C   UNL     1      19.526 -19.346  15.583  1.00  0.00     0.135 A 
HETATM   86  N   UNL     1      20.339 -18.868  14.595  1.00  0.00    -0.255 NA
HETATM   87  C   UNL     1      19.918 -17.647  14.363  1.00  0.00     0.209 A 
ENDBRANCH  82  83
BRANCH  82  88
HETATM   88  C   UNL     1      17.073 -15.825  13.964  1.00  0.00     0.053 C 
BRANCH  88  89
HETATM   89  C   UNL     1      15.501 -16.023  14.094  1.00  0.00     0.094 C 
BRANCH  89  90
HETATM   90  C   UNL     1      14.997 -17.484  14.508  1.00  0.00     0.051 C 
BRANCH  90  91
HETATM   91  C   UNL     1      14.874 -18.634  13.404  1.00  0.00     0.094 C 
BRANCH  91  92
HETATM   92  N   UNL     1      16.110 -19.414  13.259  1.00  0.00    -0.345 N 
HETATM   93  C   UNL     1      17.099 -19.214  12.333  1.00  0.00     0.111 A 
HETATM   94  C   UNL     1      17.908 -20.322  12.421  1.00  0.00     0.135 A 
HETATM   95  N   UNL     1      17.429 -21.194  13.357  1.00  0.00    -0.255 NA
HETATM   96  C   UNL     1      16.357 -20.621  13.855  1.00  0.00     0.209 A 
ENDBRANCH  91  92
BRANCH  91  97
HETATM   97  C   UNL     1      14.456 -18.153  11.960  1.00  0.00     0.051 C 
BRANCH  97  98
HETATM   98  C   UNL     1      13.573 -19.127  11.085  1.00  0.00     0.094 C 
BRANCH  98  99
HETATM   99  C   UNL     1      14.392 -19.673   9.836  1.00  0.00     0.051 C 
BRANCH  99 100
HETATM  100  C   UNL     1      13.766 -19.871   8.419  1.00  0.00     0.089 C 
HETATM  101  C   UNL     1      14.584 -20.905   7.622  1.00  0.00     0.033 C 
BRANCH 100 102
HETATM  102  N   UNL     1      12.373 -20.300   8.392  1.00  0.00    -0.334 N 
HETATM  103  C   UNL     1      11.893 -21.565   8.601  1.00  0.00     0.082 A 
HETATM  104  C   UNL     1      10.527 -21.448   8.468  1.00  0.00     0.150 A 
HETATM  105  N   UNL     1      10.171 -20.164   8.146  1.00  0.00    -0.254 NA
HETATM  106  C   UNL     1      11.300 -19.493   8.112  1.00  0.00     0.210 A 
ENDBRANCH 100 102
ENDBRANCH  99 100
ENDBRANCH  98  99
BRANCH  98 107
HETATM  107  N   UNL     1      12.705 -20.093  11.747  1.00  0.00    -0.339 N 
HETATM  108  C   UNL     1      11.447 -19.870  12.237  1.00  0.00     0.209 C 
HETATM  109  N   UNL     1      11.174 -20.670  13.243  1.00  0.00    -0.254 NA
HETATM  110  C   UNL     1      12.157 -21.610  13.225  1.00  0.00     0.142 C 
HETATM  111  C   UNL     1      13.050 -21.354  12.205  1.00  0.00     0.026 C 
HETATM  112  C   UNL     1      14.062 -22.270  11.641  1.00  0.00     0.070 C 
ENDBRANCH  98 107
ENDBRANCH  97  98
ENDBRANCH  91  97
ENDBRANCH  90  91
ENDBRANCH  89  90
BRANCH  89 113
HETATM  113  N   UNL     1      14.691 -14.860  14.498  1.00  0.00    -0.339 N 
HETATM  114  C   UNL     1      14.056 -14.467  15.661  1.00  0.00     0.026 C 
HETATM  115  C   UNL     1      13.520 -13.220  15.384  1.00  0.00     0.142 C 
HETATM  116  C   UNL     1      13.959 -15.119  16.981  1.00  0.00     0.070 C 
HETATM  117  N   UNL     1      13.956 -12.748  14.191  1.00  0.00    -0.254 NA
HETATM  118  C   UNL     1      14.710 -13.702  13.736  1.00  0.00     0.209 C 
ENDBRANCH  89 113
ENDBRANCH  88  89
ENDBRANCH  82  88
ENDBRANCH  81  82
ENDBRANCH  79  81
ENDBRANCH   4  79
BRANCH   5 119
HETATM  119  O   UNL     1      18.163 -17.638  19.387  1.00  0.00    -0.348 OA
BRANCH 119 120
HETATM  120  C   UNL     1      17.677 -18.416  20.526  1.00  0.00     0.186 C 
HETATM  121  C   UNL     1      16.131 -18.504  20.563  1.00  0.00     0.179 C 
HETATM  122  O   UNL     1      15.637 -19.824  20.283  1.00  0.00    -0.349 OA
HETATM  123  C   UNL     1      16.104 -20.876  21.135  1.00  0.00     0.296 C 
HETATM  124  C   UNL     1      17.630 -20.765  21.469  1.00  0.00     0.303 C 
HETATM  125  C   UNL     1      18.344 -19.806  20.492  1.00  0.00     0.187 C 
BRANCH 121 126
HETATM  126  C   UNL     1      15.559 -18.025  21.913  1.00  0.00     0.198 C 
BRANCH 126 127
HETATM  127  O   UNL     1      14.830 -16.811  21.766  1.00  0.00    -0.398 OA
HETATM  128  H   UNL     1      15.366 -16.089  22.148  1.00  0.00     0.209 HD
ENDBRANCH 126 127
ENDBRANCH 121 126
BRANCH 123 129
HETATM  129  O   UNL     1      15.837 -22.113  20.462  1.00  0.00    -0.348 OA
BRANCH 129 130
HETATM  130  C   UNL     1      14.943 -22.036  19.338  1.00  0.00     0.186 C 
HETATM  131  C   UNL     1      15.468 -22.893  18.160  1.00  0.00     0.176 C 
HETATM  132  O   UNL     1      14.413 -23.624  17.485  1.00  0.00    -0.379 OA
HETATM  133  C   UNL     1      13.225 -22.858  17.275  1.00  0.00     0.206 C 
HETATM  134  C   UNL     1      12.544 -22.493  18.612  1.00  0.00     0.272 C 
HETATM  135  C   UNL     1      13.559 -22.567  19.780  1.00  0.00     0.184 C 
BRANCH 131 136
HETATM  136  C   UNL     1      16.240 -22.075  17.115  1.00  0.00     0.198 C 
BRANCH 136 137
HETATM  137  O   UNL     1      16.153 -20.684  17.424  1.00  0.00    -0.398 OA
HETATM  138  H   UNL     1      17.051 -20.404  17.689  1.00  0.00     0.209 HD
ENDBRANCH 136 137
ENDBRANCH 131 136
BRANCH 134 139
HETATM  139  N   UNL     1      11.363 -23.331  18.910  1.00  0.00     0.087 N 
HETATM  140  H   UNL     1      10.660 -23.145  18.183  1.00  0.00     0.313 HD
HETATM  141  H   UNL     1      10.919 -23.048  19.782  1.00  0.00     0.313 HD
ENDBRANCH 134 139
BRANCH 135 142
HETATM  142  O   UNL     1      13.644 -23.930  20.248  1.00  0.00    -0.391 OA
HETATM  143  H   UNL     1      14.108 -24.440  19.557  1.00  0.00     0.210 HD
ENDBRANCH 135 142
ENDBRANCH 129 130
ENDBRANCH 123 129
BRANCH 124 144
HETATM  144  N   UNL     1      18.303 -22.082  21.557  1.00  0.00     0.090 N 
HETATM  145  H   UNL     1      18.351 -22.500  20.628  1.00  0.00     0.313 HD
HETATM  146  H   UNL     1      17.634 -22.691  22.051  1.00  0.00     0.313 HD
ENDBRANCH 124 144
BRANCH 125 147
HETATM  147  O   UNL     1      18.401 -20.349  19.173  1.00  0.00    -0.391 OA
HETATM  148  H   UNL     1      18.588 -21.304  19.268  1.00  0.00     0.210 HD
ENDBRANCH 125 147
ENDBRANCH 119 120
ENDBRANCH   5 119
TORSDOF 58
ENDMDL
