MODEL 1
REMARK VINA RESULT:      -6.2      0.000      0.000
REMARK WARNING: 32 MAX_TORS EXCEEDED!!!
REMARK  58 active torsions:
REMARK  status: ('A' for Active; 'I' for Inactive)
REMARK    1  A    between atoms: C_1  and  O_30 
REMARK    2  A    between atoms: C_2  and  C_6 
REMARK    3  A    between atoms: C_3  and  O_9 
REMARK    4  A    between atoms: C_4  and  N_11 
REMARK    5  A    between atoms: C_5  and  O_12 
REMARK    6  A    between atoms: C_6  and  O_7 
REMARK    7  A    between atoms: N_11  and  C_118 
REMARK    8  A    between atoms: O_12  and  C_20 
REMARK    9  A    between atoms: O_14  and  C_18 
REMARK   10  A    between atoms: C_16  and  C_23 
REMARK   11  A    between atoms: O_17  and  C_23 
REMARK   12  A    between atoms: O_19  and  C_22 
REMARK   13  A    between atoms: O_19  and  C_42 
REMARK   14  A    between atoms: N_21  and  C_24 
REMARK   15  A    between atoms: O_26  and  C_29 
REMARK   16  A    between atoms: C_28  and  C_34 
REMARK   17  A    between atoms: O_30  and  C_33 
REMARK   18  A    between atoms: C_31  and  O_53 
REMARK   19  A    between atoms: N_32  and  C_35 
REMARK   20  A    between atoms: C_34  and  O_65 
REMARK   21  A    between atoms: O_37  and  C_41 
REMARK   22  A    between atoms: C_39  and  C_45 
REMARK   23  A    between atoms: O_40  and  C_45 
REMARK   24  A    between atoms: N_43  and  C_46 
REMARK   25  A    between atoms: O_48  and  C_52 
REMARK   26  A    between atoms: C_50  and  C_57 
REMARK   27  A    between atoms: O_51  and  C_57 
REMARK   28  A    between atoms: O_53  and  C_56 
REMARK   29  A    between atoms: N_55  and  C_58 
REMARK   30  A    between atoms: N_55  and  C_71 
REMARK   31  A    between atoms: C_71  and  C_73 
REMARK   32  A    between atoms: C_73  and  C_74 
REMARK   33  A    between atoms: C_73  and  N_87 
REMARK   34  A    between atoms: C_74  and  C_75 
REMARK   35  A    between atoms: C_75  and  C_76 
REMARK   36  A    between atoms: C_75  and  N_101 
REMARK   37  A    between atoms: C_76  and  C_77 
REMARK   38  A    between atoms: C_77  and  C_78 
REMARK   39  A    between atoms: C_77  and  N_91 
REMARK   40  A    between atoms: C_78  and  C_79 
REMARK   41  A    between atoms: C_79  and  C_80 
REMARK   42  A    between atoms: C_79  and  N_106 
REMARK   43  A    between atoms: C_80  and  C_81 
REMARK   44  A    between atoms: C_81  and  N_96 
REMARK   45  A    between atoms: N_113  and  C_119 
REMARK   46  A    between atoms: C_118  and  C_119 
REMARK   47  A    between atoms: C_119  and  C_126 
REMARK   48  A    between atoms: N_122  and  C_128 
REMARK   49  A    between atoms: C_124  and  C_128 
REMARK   50  A    between atoms: C_124  and  C_130 
REMARK   51  A    between atoms: N_125  and  C_135 
REMARK   52  A    between atoms: C_126  and  C_130 
REMARK   53  A    between atoms: C_128  and  C_132 
REMARK   54  A    between atoms: N_129  and  C_130 
REMARK   55  A    between atoms: C_132  and  C_137 
REMARK   56  A    between atoms: C_135  and  C_136 
REMARK   57  A    between atoms: C_136  and  C_137 
REMARK   58  A    between atoms: C_137  and  N_140 
ROOT
HETATM    1  C   UNL     1       1.728  -6.899  -1.334  1.00  0.00     0.186 C 
HETATM    2  C   UNL     1       1.863  -6.116  -2.697  1.00  0.00     0.179 C 
HETATM    3  C   UNL     1       0.542  -6.441  -0.426  1.00  0.00     0.188 C 
HETATM    4  C   UNL     1      -0.673  -5.836  -1.206  1.00  0.00     0.306 C 
HETATM    5  C   UNL     1       0.074  -4.697  -1.993  1.00  0.00     0.296 C 
HETATM    6  O   UNL     1       0.732  -5.288  -3.096  1.00  0.00    -0.349 OA
ENDROOT
BRANCH   1   7
HETATM    7  O   UNL     1       1.672  -8.316  -1.591  1.00  0.00    -0.348 OA
BRANCH   7   8
HETATM    8  C   UNL     1       2.797  -9.069  -1.086  1.00  0.00     0.296 C 
HETATM    9  O   UNL     1       3.707  -9.258  -2.179  1.00  0.00    -0.349 OA
HETATM   10  C   UNL     1       4.847 -10.108  -1.922  1.00  0.00     0.179 C 
HETATM   11  C   UNL     1       4.462 -11.441  -1.245  1.00  0.00     0.186 C 
HETATM   12  C   UNL     1       2.939 -11.617  -1.237  1.00  0.00     0.187 C 
HETATM   13  C   UNL     1       2.303 -10.436  -0.494  1.00  0.00     0.303 C 
BRANCH  10  14
HETATM   14  C   UNL     1       5.927  -9.355  -1.121  1.00  0.00     0.198 C 
BRANCH  14  15
HETATM   15  O   UNL     1       6.245  -8.097  -1.713  1.00  0.00    -0.398 OA
HETATM   16  H   UNL     1       7.216  -8.040  -1.781  1.00  0.00     0.209 HD
ENDBRANCH  14  15
ENDBRANCH  10  14
BRANCH  11  17
HETATM   17  O   UNL     1       5.000 -12.580  -1.924  1.00  0.00    -0.348 OA
BRANCH  17  18
HETATM   18  C   UNL     1       6.190 -12.342  -2.663  1.00  0.00     0.296 C 
HETATM   19  O   UNL     1       5.853 -12.143  -4.033  1.00  0.00    -0.351 OA
HETATM   20  C   UNL     1       6.770 -12.667  -5.007  1.00  0.00     0.150 C 
HETATM   21  C   UNL     1       8.218 -12.513  -4.550  1.00  0.00     0.068 C 
HETATM   22  C   UNL     1       8.472 -13.170  -3.188  1.00  0.00     0.158 C 
HETATM   23  C   UNL     1       7.187 -13.504  -2.385  1.00  0.00     0.303 C 
BRANCH  20  24
HETATM   24  C   UNL     1       6.527 -11.942  -6.342  1.00  0.00     0.196 C 
BRANCH  24  25
HETATM   25  O   UNL     1       5.127 -11.889  -6.614  1.00  0.00    -0.398 OA
HETATM   26  H   UNL     1       5.020 -11.805  -7.577  1.00  0.00     0.209 HD
ENDBRANCH  24  25
ENDBRANCH  20  24
BRANCH  22  27
HETATM   27  O   UNL     1       9.263 -14.349  -3.369  1.00  0.00    -0.393 OA
HETATM   28  H   UNL     1      10.016 -14.068  -3.929  1.00  0.00     0.210 HD
ENDBRANCH  22  27
BRANCH  23  29
HETATM   29  N   UNL     1       6.741 -14.877  -2.757  1.00  0.00     0.097 N 
HETATM   30  H   UNL     1       5.737 -14.808  -2.956  1.00  0.00     0.316 HD
BRANCH  29  31
HETATM   31  C   UNL     1       6.833 -15.919  -1.720  1.00  0.00     0.296 C 
BRANCH  31  32
HETATM   32  C   UNL     1       7.041 -17.417  -2.213  1.00  0.00     0.120 C 
BRANCH  32  33
HETATM   33  C   UNL     1       5.758 -18.266  -1.882  1.00  0.00     0.053 C 
BRANCH  33  34
HETATM   34  C   UNL     1       4.828 -17.908  -0.639  1.00  0.00     0.094 C 
BRANCH  34  35
HETATM   35  C   UNL     1       3.491 -17.213  -1.119  1.00  0.00     0.051 C 
BRANCH  35  36
HETATM   36  C   UNL     1       2.857 -17.460  -2.544  1.00  0.00     0.094 C 
BRANCH  36  37
HETATM   37  C   UNL     1       1.312 -17.731  -2.474  1.00  0.00     0.051 C 
BRANCH  37  38
HETATM   38  C   UNL     1       0.638 -18.012  -1.078  1.00  0.00     0.094 C 
BRANCH  38  39
HETATM   39  C   UNL     1      -0.890 -17.636  -1.085  1.00  0.00     0.051 C 
BRANCH  39  40
HETATM   40  C   UNL     1      -1.427 -16.274  -0.567  1.00  0.00     0.089 C 
HETATM   41  C   UNL     1      -0.900 -16.034   0.861  1.00  0.00     0.033 C 
BRANCH  40  42
HETATM   42  N   UNL     1      -1.094 -15.111  -1.379  1.00  0.00    -0.334 N 
HETATM   43  C   UNL     1      -0.299 -14.068  -0.979  1.00  0.00     0.210 A 
HETATM   44  N   UNL     1      -0.122 -13.196  -1.945  1.00  0.00    -0.254 NA
HETATM   45  C   UNL     1      -0.827 -13.694  -3.009  1.00  0.00     0.150 A 
HETATM   46  C   UNL     1      -1.440 -14.883  -2.682  1.00  0.00     0.082 A 
ENDBRANCH  40  42
ENDBRANCH  39  40
ENDBRANCH  38  39
BRANCH  38  47
HETATM   47  N   UNL     1       1.069 -19.168  -0.314  1.00  0.00    -0.345 N 
HETATM   48  C   UNL     1       1.484 -20.394  -0.742  1.00  0.00     0.209 A 
HETATM   49  N   UNL     1       1.717 -21.210   0.263  1.00  0.00    -0.255 NA
HETATM   50  C   UNL     1       1.508 -20.476   1.393  1.00  0.00     0.135 A 
HETATM   51  C   UNL     1       1.104 -19.205   1.064  1.00  0.00     0.111 A 
ENDBRANCH  38  47
ENDBRANCH  37  38
ENDBRANCH  36  37
BRANCH  36  52
HETATM   52  N   UNL     1       3.084 -16.326  -3.455  1.00  0.00    -0.345 N 
HETATM   53  C   UNL     1       2.641 -15.045  -3.269  1.00  0.00     0.209 A 
HETATM   54  N   UNL     1       3.065 -14.236  -4.213  1.00  0.00    -0.255 NA
HETATM   55  C   UNL     1       3.800 -15.017  -5.055  1.00  0.00     0.135 A 
HETATM   56  C   UNL     1       3.876 -16.302  -4.574  1.00  0.00     0.111 A 
ENDBRANCH  36  52
ENDBRANCH  35  36
ENDBRANCH  34  35
BRANCH  34  57
HETATM   57  N   UNL     1       4.815 -18.917   0.418  1.00  0.00    -0.345 N 
HETATM   58  C   UNL     1       4.729 -18.664   1.766  1.00  0.00     0.209 A 
HETATM   59  N   UNL     1       4.979 -19.726   2.497  1.00  0.00    -0.255 NA
HETATM   60  C   UNL     1       5.293 -20.705   1.605  1.00  0.00     0.135 A 
HETATM   61  C   UNL     1       5.257 -20.215   0.323  1.00  0.00     0.111 A 
ENDBRANCH  34  57
ENDBRANCH  33  34
ENDBRANCH  32  33
BRANCH  32  62
HETATM   62  N   UNL     1       8.326 -18.042  -1.877  1.00  0.00    -0.344 N 
HETATM   63  C   UNL     1       8.612 -19.109  -1.067  1.00  0.00     0.111 A 
HETATM   64  C   UNL     1       9.975 -19.271  -1.096  1.00  0.00     0.135 A 
HETATM   65  N   UNL     1      10.549 -18.309  -1.864  1.00  0.00    -0.255 NA
HETATM   66  C   UNL     1       9.549 -17.581  -2.303  1.00  0.00     0.209 A 
ENDBRANCH  32  62
ENDBRANCH  31  32
ENDBRANCH  29  31
ENDBRANCH  23  29
ENDBRANCH  17  18
ENDBRANCH  11  17
BRANCH  12  67
HETATM   67  O   UNL     1       2.405 -11.725  -2.568  1.00  0.00    -0.391 OA
HETATM   68  H   UNL     1       1.447 -11.903  -2.485  1.00  0.00     0.210 HD
ENDBRANCH  12  67
BRANCH  13  69
HETATM   69  N   UNL     1       0.838 -10.626  -0.466  1.00  0.00     0.090 N 
HETATM   70  H   UNL     1       0.427  -9.759  -0.827  1.00  0.00     0.313 HD
HETATM   71  H   UNL     1       0.581 -10.618   0.529  1.00  0.00     0.313 HD
ENDBRANCH  13  69
ENDBRANCH   7   8
ENDBRANCH   1   7
BRANCH   2  72
HETATM   72  C   UNL     1       3.154  -5.254  -2.666  1.00  0.00     0.198 C 
BRANCH  72  73
HETATM   73  O   UNL     1       4.277  -6.018  -2.244  1.00  0.00    -0.398 OA
HETATM   74  H   UNL     1       4.453  -6.695  -2.920  1.00  0.00     0.209 HD
ENDBRANCH  72  73
ENDBRANCH   2  72
BRANCH   3  75
HETATM   75  O   UNL     1       0.169  -7.417   0.545  1.00  0.00    -0.391 OA
HETATM   76  H   UNL     1       0.783  -8.170   0.458  1.00  0.00     0.210 HD
ENDBRANCH   3  75
BRANCH   4  77
HETATM   77  N   UNL     1      -1.516  -6.984  -1.739  1.00  0.00     0.097 N 
HETATM   78  H   UNL     1      -1.241  -7.825  -1.234  1.00  0.00     0.316 HD
BRANCH  77  79
HETATM   79  C   UNL     1      -2.998  -6.909  -1.735  1.00  0.00     0.296 C 
BRANCH  79  80
HETATM   80  C   UNL     1      -3.845  -7.931  -0.742  1.00  0.00     0.120 C 
BRANCH  80  81
HETATM   81  N   UNL     1      -3.386  -9.322  -0.767  1.00  0.00    -0.344 N 
HETATM   82  C   UNL     1      -3.776 -10.352  -1.583  1.00  0.00     0.111 A 
HETATM   83  C   UNL     1      -3.121 -11.471  -1.118  1.00  0.00     0.135 A 
HETATM   84  N   UNL     1      -2.354 -11.160  -0.030  1.00  0.00    -0.255 NA
HETATM   85  C   UNL     1      -2.555  -9.889   0.168  1.00  0.00     0.209 A 
ENDBRANCH  80  81
BRANCH  80  86
HETATM   86  C   UNL     1      -4.138  -7.316   0.696  1.00  0.00     0.053 C 
BRANCH  86  87
HETATM   87  C   UNL     1      -5.024  -7.951   1.900  1.00  0.00     0.094 C 
BRANCH  87  88
HETATM   88  C   UNL     1      -4.648  -7.506   3.387  1.00  0.00     0.051 C 
BRANCH  88  89
HETATM   89  C   UNL     1      -5.565  -6.438   4.179  1.00  0.00     0.094 C 
BRANCH  89  90
HETATM   90  N   UNL     1      -6.899  -6.954   4.545  1.00  0.00    -0.345 N 
HETATM   91  C   UNL     1      -7.216  -8.153   5.124  1.00  0.00     0.111 A 
HETATM   92  C   UNL     1      -8.591  -8.233   5.101  1.00  0.00     0.135 A 
HETATM   93  N   UNL     1      -9.122  -7.136   4.498  1.00  0.00    -0.255 NA
HETATM   94  C   UNL     1      -8.096  -6.369   4.215  1.00  0.00     0.209 A 
ENDBRANCH  89  90
BRANCH  89  95
HETATM   95  C   UNL     1      -5.770  -5.074   3.401  1.00  0.00     0.051 C 
BRANCH  95  96
HETATM   96  C   UNL     1      -5.605  -3.680   4.151  1.00  0.00     0.094 C 
BRANCH  96  97
HETATM   97  C   UNL     1      -4.799  -3.829   5.503  1.00  0.00     0.051 C 
BRANCH  97  98
HETATM   98  C   UNL     1      -5.422  -3.578   6.911  1.00  0.00     0.089 C 
HETATM   99  C   UNL     1      -5.591  -2.060   7.131  1.00  0.00     0.033 C 
BRANCH  98 100
HETATM  100  N   UNL     1      -6.713  -4.214   7.150  1.00  0.00    -0.334 N 
HETATM  101  C   UNL     1      -7.950  -3.636   7.049  1.00  0.00     0.082 A 
HETATM  102  C   UNL     1      -8.830  -4.608   7.467  1.00  0.00     0.150 A 
HETATM  103  N   UNL     1      -8.165  -5.751   7.827  1.00  0.00    -0.254 NA
HETATM  104  C   UNL     1      -6.896  -5.490   7.617  1.00  0.00     0.210 A 
ENDBRANCH  98 100
ENDBRANCH  97  98
ENDBRANCH  96  97
BRANCH  96 105
HETATM  105  N   UNL     1      -5.435  -2.460   3.382  1.00  0.00    -0.345 N 
HETATM  106  C   UNL     1      -5.912  -2.129   2.146  1.00  0.00     0.209 A 
HETATM  107  N   UNL     1      -5.442  -0.973   1.731  1.00  0.00    -0.255 NA
HETATM  108  C   UNL     1      -4.669  -0.501   2.748  1.00  0.00     0.135 A 
HETATM  109  C   UNL     1      -4.646  -1.403   3.784  1.00  0.00     0.111 A 
ENDBRANCH  96 105
ENDBRANCH  95  96
ENDBRANCH  89  95
ENDBRANCH  88  89
ENDBRANCH  87  88
BRANCH  87 110
HETATM  110  N   UNL     1      -6.440  -8.172   1.572  1.00  0.00    -0.345 N 
HETATM  111  C   UNL     1      -7.257  -7.375   0.813  1.00  0.00     0.111 A 
HETATM  112  C   UNL     1      -8.408  -8.092   0.596  1.00  0.00     0.135 A 
HETATM  113  N   UNL     1      -8.293  -9.346   1.113  1.00  0.00    -0.255 NA
HETATM  114  C   UNL     1      -7.100  -9.379   1.658  1.00  0.00     0.209 A 
ENDBRANCH  87 110
ENDBRANCH  86  87
ENDBRANCH  80  86
ENDBRANCH  79  80
ENDBRANCH  77  79
ENDBRANCH   4  77
BRANCH   5 115
HETATM  115  O   UNL     1      -0.733  -3.538  -2.283  1.00  0.00    -0.348 OA
BRANCH 115 116
HETATM  116  C   UNL     1      -0.634  -2.477  -1.261  1.00  0.00     0.186 C 
HETATM  117  C   UNL     1       0.811  -1.936  -1.096  1.00  0.00     0.179 C 
HETATM  118  O   UNL     1       0.993  -0.636  -1.688  1.00  0.00    -0.349 OA
HETATM  119  C   UNL     1       0.182   0.418  -1.160  1.00  0.00     0.296 C 
HETATM  120  C   UNL     1      -1.304  -0.021  -0.918  1.00  0.00     0.303 C 
HETATM  121  C   UNL     1      -1.632  -1.356  -1.629  1.00  0.00     0.187 C 
BRANCH 117 122
HETATM  122  C   UNL     1       1.251  -1.886   0.384  1.00  0.00     0.198 C 
BRANCH 122 123
HETATM  123  O   UNL     1       2.455  -2.618   0.594  1.00  0.00    -0.398 OA
HETATM  124  H   UNL     1       2.572  -2.742   1.557  1.00  0.00     0.209 HD
ENDBRANCH 122 123
ENDBRANCH 117 122
BRANCH 119 125
HETATM  125  O   UNL     1       0.234   1.512  -2.090  1.00  0.00    -0.348 OA
BRANCH 125 126
HETATM  126  C   UNL     1       0.907   2.704  -1.635  1.00  0.00     0.186 C 
HETATM  127  C   UNL     1       1.159   2.658  -0.106  1.00  0.00     0.176 C 
HETATM  128  O   UNL     1       2.465   3.171   0.265  1.00  0.00    -0.379 OA
HETATM  129  C   UNL     1       2.836   4.359  -0.438  1.00  0.00     0.206 C 
HETATM  130  C   UNL     1       3.036   4.080  -1.942  1.00  0.00     0.272 C 
HETATM  131  C   UNL     1       2.269   2.802  -2.366  1.00  0.00     0.184 C 
BRANCH 127 132
HETATM  132  C   UNL     1       0.097   3.411   0.710  1.00  0.00     0.198 C 
BRANCH 132 133
HETATM  133  O   UNL     1       0.232   3.090   2.094  1.00  0.00    -0.398 OA
HETATM  134  H   UNL     1       0.729   2.249   2.136  1.00  0.00     0.209 HD
ENDBRANCH 132 133
ENDBRANCH 127 132
BRANCH 130 135
HETATM  135  N   UNL     1       4.459   3.974  -2.328  1.00  0.00     0.087 N 
HETATM  136  H   UNL     1       4.522   3.304  -3.103  1.00  0.00     0.313 HD
HETATM  137  H   UNL     1       5.017   3.567  -1.578  1.00  0.00     0.313 HD
ENDBRANCH 130 135
BRANCH 131 138
HETATM  138  O   UNL     1       3.092   1.646  -2.094  1.00  0.00    -0.391 OA
HETATM  139  H   UNL     1       2.740   1.235  -1.280  1.00  0.00     0.210 HD
ENDBRANCH 131 138
ENDBRANCH 125 126
ENDBRANCH 119 125
BRANCH 120 140
HETATM  140  N   UNL     1      -2.280   1.044  -1.253  1.00  0.00     0.090 N 
HETATM  141  H   UNL     1      -2.768   1.325  -0.400  1.00  0.00     0.313 HD
HETATM  142  H   UNL     1      -3.024   0.568  -1.785  1.00  0.00     0.313 HD
ENDBRANCH 120 140
BRANCH 121 143
HETATM  143  O   UNL     1      -1.726  -1.175  -3.044  1.00  0.00    -0.391 OA
HETATM  144  H   UNL     1      -2.544  -0.661  -3.204  1.00  0.00     0.210 HD
ENDBRANCH 121 143
ENDBRANCH 115 116
ENDBRANCH   5 115
TORSDOF 58
ENDMDL
MODEL 2
REMARK VINA RESULT:      -6.1     10.629     19.736
REMARK WARNING: 32 MAX_TORS EXCEEDED!!!
REMARK  58 active torsions:
REMARK  status: ('A' for Active; 'I' for Inactive)
REMARK    1  A    between atoms: C_1  and  O_30 
REMARK    2  A    between atoms: C_2  and  C_6 
REMARK    3  A    between atoms: C_3  and  O_9 
REMARK    4  A    between atoms: C_4  and  N_11 
REMARK    5  A    between atoms: C_5  and  O_12 
REMARK    6  A    between atoms: C_6  and  O_7 
REMARK    7  A    between atoms: N_11  and  C_118 
REMARK    8  A    between atoms: O_12  and  C_20 
REMARK    9  A    between atoms: O_14  and  C_18 
REMARK   10  A    between atoms: C_16  and  C_23 
REMARK   11  A    between atoms: O_17  and  C_23 
REMARK   12  A    between atoms: O_19  and  C_22 
REMARK   13  A    between atoms: O_19  and  C_42 
REMARK   14  A    between atoms: N_21  and  C_24 
REMARK   15  A    between atoms: O_26  and  C_29 
REMARK   16  A    between atoms: C_28  and  C_34 
REMARK   17  A    between atoms: O_30  and  C_33 
REMARK   18  A    between atoms: C_31  and  O_53 
REMARK   19  A    between atoms: N_32  and  C_35 
REMARK   20  A    between atoms: C_34  and  O_65 
REMARK   21  A    between atoms: O_37  and  C_41 
REMARK   22  A    between atoms: C_39  and  C_45 
REMARK   23  A    between atoms: O_40  and  C_45 
REMARK   24  A    between atoms: N_43  and  C_46 
REMARK   25  A    between atoms: O_48  and  C_52 
REMARK   26  A    between atoms: C_50  and  C_57 
REMARK   27  A    between atoms: O_51  and  C_57 
REMARK   28  A    between atoms: O_53  and  C_56 
REMARK   29  A    between atoms: N_55  and  C_58 
REMARK   30  A    between atoms: N_55  and  C_71 
REMARK   31  A    between atoms: C_71  and  C_73 
REMARK   32  A    between atoms: C_73  and  C_74 
REMARK   33  A    between atoms: C_73  and  N_87 
REMARK   34  A    between atoms: C_74  and  C_75 
REMARK   35  A    between atoms: C_75  and  C_76 
REMARK   36  A    between atoms: C_75  and  N_101 
REMARK   37  A    between atoms: C_76  and  C_77 
REMARK   38  A    between atoms: C_77  and  C_78 
REMARK   39  A    between atoms: C_77  and  N_91 
REMARK   40  A    between atoms: C_78  and  C_79 
REMARK   41  A    between atoms: C_79  and  C_80 
REMARK   42  A    between atoms: C_79  and  N_106 
REMARK   43  A    between atoms: C_80  and  C_81 
REMARK   44  A    between atoms: C_81  and  N_96 
REMARK   45  A    between atoms: N_113  and  C_119 
REMARK   46  A    between atoms: C_118  and  C_119 
REMARK   47  A    between atoms: C_119  and  C_126 
REMARK   48  A    between atoms: N_122  and  C_128 
REMARK   49  A    between atoms: C_124  and  C_128 
REMARK   50  A    between atoms: C_124  and  C_130 
REMARK   51  A    between atoms: N_125  and  C_135 
REMARK   52  A    between atoms: C_126  and  C_130 
REMARK   53  A    between atoms: C_128  and  C_132 
REMARK   54  A    between atoms: N_129  and  C_130 
REMARK   55  A    between atoms: C_132  and  C_137 
REMARK   56  A    between atoms: C_135  and  C_136 
REMARK   57  A    between atoms: C_136  and  C_137 
REMARK   58  A    between atoms: C_137  and  N_140 
ROOT
HETATM    1  C   UNL     1     -12.433  -0.945   7.909  1.00  0.00     0.186 C 
HETATM    2  C   UNL     1     -11.517  -0.400   9.073  1.00  0.00     0.179 C 
HETATM    3  C   UNL     1     -11.661  -1.514   6.675  1.00  0.00     0.188 C 
HETATM    4  C   UNL     1     -10.243  -2.087   7.008  1.00  0.00     0.306 C 
HETATM    5  C   UNL     1      -9.613  -0.818   7.692  1.00  0.00     0.296 C 
HETATM    6  O   UNL     1     -10.104  -0.748   9.016  1.00  0.00    -0.349 OA
ENDROOT
BRANCH   1   7
HETATM    7  O   UNL     1     -13.363  -1.914   8.435  1.00  0.00    -0.348 OA
BRANCH   7   8
HETATM    8  C   UNL     1     -13.108  -2.321   9.799  1.00  0.00     0.296 C 
HETATM    9  O   UNL     1     -12.153  -3.389   9.751  1.00  0.00    -0.349 OA
HETATM   10  C   UNL     1     -11.855  -4.039  11.008  1.00  0.00     0.179 C 
HETATM   11  C   UNL     1     -13.124  -4.424  11.799  1.00  0.00     0.186 C 
HETATM   12  C   UNL     1     -14.374  -4.229  10.934  1.00  0.00     0.187 C 
HETATM   13  C   UNL     1     -14.449  -2.765  10.483  1.00  0.00     0.303 C 
BRANCH  10  14
HETATM   14  C   UNL     1     -10.894  -3.183  11.856  1.00  0.00     0.198 C 
BRANCH  14  15
HETATM   15  O   UNL     1      -9.668  -2.928  11.173  1.00  0.00    -0.398 OA
HETATM   16  H   UNL     1      -9.712  -2.023  10.813  1.00  0.00     0.209 HD
ENDBRANCH  14  15
ENDBRANCH  10  14
BRANCH  11  17
HETATM   17  O   UNL     1     -13.122  -5.793  12.211  1.00  0.00    -0.348 OA
BRANCH  17  18
HETATM   18  C   UNL     1     -13.012  -6.009  13.611  1.00  0.00     0.296 C 
HETATM   19  O   UNL     1     -11.654  -5.833  14.003  1.00  0.00    -0.351 OA
HETATM   20  C   UNL     1     -11.161  -6.701  15.036  1.00  0.00     0.150 C 
HETATM   21  C   UNL     1     -12.227  -6.974  16.092  1.00  0.00     0.068 C 
HETATM   22  C   UNL     1     -13.511  -7.556  15.489  1.00  0.00     0.158 C 
HETATM   23  C   UNL     1     -13.628  -7.397  13.949  1.00  0.00     0.303 C 
BRANCH  20  24
HETATM   24  C   UNL     1      -9.911  -6.056  15.658  1.00  0.00     0.196 C 
BRANCH  24  25
HETATM   25  O   UNL     1     -10.300  -5.145  16.686  1.00  0.00    -0.398 OA
HETATM   26  H   UNL     1     -10.223  -4.246  16.323  1.00  0.00     0.209 HD
ENDBRANCH  24  25
ENDBRANCH  20  24
BRANCH  22  27
HETATM   27  O   UNL     1     -13.624  -8.935  15.853  1.00  0.00    -0.393 OA
HETATM   28  H   UNL     1     -12.983  -9.405  15.280  1.00  0.00     0.210 HD
ENDBRANCH  22  27
BRANCH  23  29
HETATM   29  N   UNL     1     -13.004  -8.586  13.303  1.00  0.00     0.097 N 
HETATM   30  H   UNL     1     -12.210  -8.231  12.757  1.00  0.00     0.316 HD
BRANCH  29  31
HETATM   31  C   UNL     1     -13.817  -9.324  12.321  1.00  0.00     0.296 C 
BRANCH  31  32
HETATM   32  C   UNL     1     -15.317  -9.659  12.728  1.00  0.00     0.120 C 
BRANCH  32  33
HETATM   33  C   UNL     1     -15.436 -11.185  13.099  1.00  0.00     0.053 C 
BRANCH  33  34
HETATM   34  C   UNL     1     -15.966 -11.648  14.528  1.00  0.00     0.094 C 
BRANCH  34  35
HETATM   35  C   UNL     1     -17.504 -11.320  14.691  1.00  0.00     0.051 C 
BRANCH  35  36
HETATM   36  C   UNL     1     -18.037 -10.108  15.552  1.00  0.00     0.094 C 
BRANCH  36  37
HETATM   37  C   UNL     1     -16.889  -9.387  16.346  1.00  0.00     0.051 C 
BRANCH  37  38
HETATM   38  C   UNL     1     -16.598  -9.804  17.836  1.00  0.00     0.094 C 
BRANCH  38  39
HETATM   39  C   UNL     1     -15.839  -8.670  18.619  1.00  0.00     0.051 C 
BRANCH  39  40
HETATM   40  C   UNL     1     -16.051  -7.158  18.333  1.00  0.00     0.089 C 
HETATM   41  C   UNL     1     -17.302  -6.673  19.092  1.00  0.00     0.033 C 
BRANCH  40  42
HETATM   42  N   UNL     1     -14.938  -6.284  18.677  1.00  0.00    -0.334 N 
HETATM   43  C   UNL     1     -13.932  -6.594  19.555  1.00  0.00     0.210 A 
HETATM   44  N   UNL     1     -13.031  -5.640  19.615  1.00  0.00    -0.254 NA
HETATM   45  C   UNL     1     -13.471  -4.679  18.742  1.00  0.00     0.150 A 
HETATM   46  C   UNL     1     -14.654  -5.056  18.147  1.00  0.00     0.082 A 
ENDBRANCH  40  42
ENDBRANCH  39  40
ENDBRANCH  38  39
BRANCH  38  47
HETATM   47  N   UNL     1     -17.583 -10.601  18.544  1.00  0.00    -0.345 N 
HETATM   48  C   UNL     1     -17.659 -11.952  18.709  1.00  0.00     0.209 A 
HETATM   49  N   UNL     1     -18.751 -12.305  19.351  1.00  0.00    -0.255 NA
HETATM   50  C   UNL     1     -19.384 -11.142  19.675  1.00  0.00     0.135 A 
HETATM   51  C   UNL     1     -18.681 -10.068  19.186  1.00  0.00     0.111 A 
ENDBRANCH  38  47
ENDBRANCH  37  38
ENDBRANCH  36  37
BRANCH  36  52
HETATM   52  N   UNL     1     -18.726  -9.103  14.725  1.00  0.00    -0.345 N 
HETATM   53  C   UNL     1     -19.656  -9.361  13.756  1.00  0.00     0.209 A 
HETATM   54  N   UNL     1     -20.150  -8.258  13.243  1.00  0.00    -0.255 NA
HETATM   55  C   UNL     1     -19.512  -7.240  13.888  1.00  0.00     0.135 A 
HETATM   56  C   UNL     1     -18.670  -7.740  14.852  1.00  0.00     0.111 A 
ENDBRANCH  36  52
ENDBRANCH  35  36
ENDBRANCH  34  35
BRANCH  34  57
HETATM   57  N   UNL     1     -15.412 -12.917  14.998  1.00  0.00    -0.345 N 
HETATM   58  C   UNL     1     -14.713 -13.818  14.232  1.00  0.00     0.209 A 
HETATM   59  N   UNL     1     -14.542 -14.971  14.837  1.00  0.00    -0.255 NA
HETATM   60  C   UNL     1     -15.194 -14.848  16.026  1.00  0.00     0.135 A 
HETATM   61  C   UNL     1     -15.788 -13.614  16.121  1.00  0.00     0.111 A 
ENDBRANCH  34  57
ENDBRANCH  33  34
ENDBRANCH  32  33
BRANCH  32  62
HETATM   62  N   UNL     1     -16.366  -9.132  11.847  1.00  0.00    -0.344 N 
HETATM   63  C   UNL     1     -17.250  -9.782  11.026  1.00  0.00     0.111 A 
HETATM   64  C   UNL     1     -18.009  -8.811  10.419  1.00  0.00     0.135 A 
HETATM   65  N   UNL     1     -17.593  -7.577  10.803  1.00  0.00    -0.255 NA
HETATM   66  C   UNL     1     -16.605  -7.794  11.639  1.00  0.00     0.209 A 
ENDBRANCH  32  62
ENDBRANCH  31  32
ENDBRANCH  29  31
ENDBRANCH  23  29
ENDBRANCH  17  18
ENDBRANCH  11  17
BRANCH  12  67
HETATM   67  O   UNL     1     -14.382  -5.111   9.797  1.00  0.00    -0.391 OA
HETATM   68  H   UNL     1     -14.923  -4.688   9.102  1.00  0.00     0.210 HD
ENDBRANCH  12  67
BRANCH  13  69
HETATM   69  N   UNL     1     -15.670  -2.580   9.672  1.00  0.00     0.090 N 
HETATM   70  H   UNL     1     -16.086  -3.511   9.560  1.00  0.00     0.313 HD
HETATM   71  H   UNL     1     -15.338  -2.350   8.728  1.00  0.00     0.313 HD
ENDBRANCH  13  69
ENDBRANCH   7   8
ENDBRANCH   1   7
BRANCH   2  72
HETATM   72  C   UNL     1     -11.672   1.142   9.165  1.00  0.00     0.198 C 
BRANCH  72  73
HETATM   73  O   UNL     1     -12.513   1.642   8.132  1.00  0.00    -0.398 OA
HETATM   74  H   UNL     1     -11.947   2.025   7.440  1.00  0.00     0.209 HD
ENDBRANCH  72  73
ENDBRANCH   2  72
BRANCH   3  75
HETATM   75  O   UNL     1     -12.455  -2.383   5.870  1.00  0.00    -0.391 OA
HETATM   76  H   UNL     1     -13.061  -1.829   5.345  1.00  0.00     0.210 HD
ENDBRANCH   3  75
BRANCH   4  77
HETATM   77  N   UNL     1     -10.415  -3.495   7.557  1.00  0.00     0.097 N 
HETATM   78  H   UNL     1     -11.031  -3.997   6.921  1.00  0.00     0.316 HD
BRANCH  77  79
HETATM   79  C   UNL     1      -9.238  -4.355   7.833  1.00  0.00     0.296 C 
BRANCH  79  80
HETATM   80  C   UNL     1      -8.534  -5.171   6.573  1.00  0.00     0.120 C 
BRANCH  80  81
HETATM   81  N   UNL     1      -7.163  -4.755   6.269  1.00  0.00    -0.344 N 
HETATM   82  C   UNL     1      -6.524  -4.685   5.059  1.00  0.00     0.111 A 
HETATM   83  C   UNL     1      -5.219  -4.343   5.340  1.00  0.00     0.135 A 
HETATM   84  N   UNL     1      -5.037  -4.217   6.689  1.00  0.00    -0.255 NA
HETATM   85  C   UNL     1      -6.197  -4.496   7.211  1.00  0.00     0.209 A 
ENDBRANCH  80  81
BRANCH  80  86
HETATM   86  C   UNL     1      -8.799  -6.741   6.611  1.00  0.00     0.053 C 
BRANCH  86  87
HETATM   87  C   UNL     1      -7.718  -7.937   6.807  1.00  0.00     0.094 C 
BRANCH  87  88
HETATM   88  C   UNL     1      -8.121  -9.119   7.804  1.00  0.00     0.051 C 
BRANCH  88  89
HETATM   89  C   UNL     1      -9.619  -9.213   8.399  1.00  0.00     0.094 C 
BRANCH  89  90
HETATM   90  N   UNL     1      -9.698  -8.964   9.853  1.00  0.00    -0.345 N 
HETATM   91  C   UNL     1      -9.162  -9.705  10.872  1.00  0.00     0.111 A 
HETATM   92  C   UNL     1      -9.657  -9.161  12.036  1.00  0.00     0.135 A 
HETATM   93  N   UNL     1     -10.503  -8.132  11.760  1.00  0.00    -0.255 NA
HETATM   94  C   UNL     1     -10.476  -8.007  10.454  1.00  0.00     0.209 A 
ENDBRANCH  89  90
BRANCH  89  95
HETATM   95  C   UNL     1     -10.335 -10.595   8.105  1.00  0.00     0.051 C 
BRANCH  95  96
HETATM   96  C   UNL     1     -11.879 -10.794   8.437  1.00  0.00     0.094 C 
BRANCH  96  97
HETATM   97  C   UNL     1     -12.796 -10.490   7.185  1.00  0.00     0.051 C 
BRANCH  97  98
HETATM   98  C   UNL     1     -12.371  -9.552   6.013  1.00  0.00     0.089 C 
HETATM   99  C   UNL     1     -13.185  -9.909   4.753  1.00  0.00     0.033 C 
BRANCH  98 100
HETATM  100  N   UNL     1     -12.529  -8.123   6.262  1.00  0.00    -0.334 N 
HETATM  101  C   UNL     1     -12.355  -7.105   5.365  1.00  0.00     0.082 A 
HETATM  102  C   UNL     1     -12.520  -5.952   6.100  1.00  0.00     0.150 A 
HETATM  103  N   UNL     1     -12.779  -6.242   7.415  1.00  0.00    -0.254 NA
HETATM  104  C   UNL     1     -12.788  -7.553   7.481  1.00  0.00     0.210 A 
ENDBRANCH  98 100
ENDBRANCH  97  98
ENDBRANCH  96  97
BRANCH  96 105
HETATM  105  N   UNL     1     -12.293 -11.843   9.352  1.00  0.00    -0.345 N 
HETATM  106  C   UNL     1     -11.941 -12.060  10.653  1.00  0.00     0.209 A 
HETATM  107  N   UNL     1     -12.434 -13.190  11.114  1.00  0.00    -0.255 NA
HETATM  108  C   UNL     1     -13.177 -13.710  10.097  1.00  0.00     0.135 A 
HETATM  109  C   UNL     1     -13.107 -12.896   8.993  1.00  0.00     0.111 A 
ENDBRANCH  96 105
ENDBRANCH  95  96
ENDBRANCH  89  95
ENDBRANCH  88  89
ENDBRANCH  87  88
BRANCH  87 110
HETATM  110  N   UNL     1      -6.942  -8.270   5.604  1.00  0.00    -0.345 N 
HETATM  111  C   UNL     1      -7.411  -8.440   4.327  1.00  0.00     0.111 A 
HETATM  112  C   UNL     1      -6.306  -8.510   3.513  1.00  0.00     0.135 A 
HETATM  113  N   UNL     1      -5.171  -8.289   4.230  1.00  0.00    -0.255 NA
HETATM  114  C   UNL     1      -5.580  -8.116   5.465  1.00  0.00     0.209 A 
ENDBRANCH  87 110
ENDBRANCH  86  87
ENDBRANCH  80  86
ENDBRANCH  79  80
ENDBRANCH  77  79
ENDBRANCH   4  77
BRANCH   5 115
HETATM  115  O   UNL     1      -8.184  -0.700   7.539  1.00  0.00    -0.348 OA
BRANCH 115 116
HETATM  116  C   UNL     1      -7.760  -0.408   6.156  1.00  0.00     0.186 C 
HETATM  117  C   UNL     1      -7.817   1.106   5.818  1.00  0.00     0.179 C 
HETATM  118  O   UNL     1      -6.516   1.720   5.775  1.00  0.00    -0.349 OA
HETATM  119  C   UNL     1      -5.602   1.199   4.805  1.00  0.00     0.296 C 
HETATM  120  C   UNL     1      -5.622  -0.367   4.732  1.00  0.00     0.303 C 
HETATM  121  C   UNL     1      -6.343  -0.991   5.951  1.00  0.00     0.187 C 
BRANCH 117 122
HETATM  122  C   UNL     1      -8.552   1.380   4.487  1.00  0.00     0.198 C 
BRANCH 122 123
HETATM  123  O   UNL     1      -8.761   2.775   4.285  1.00  0.00    -0.398 OA
HETATM  124  H   UNL     1      -9.610   3.019   4.705  1.00  0.00     0.209 HD
ENDBRANCH 122 123
ENDBRANCH 117 122
BRANCH 119 125
HETATM  125  O   UNL     1      -4.289   1.667   5.152  1.00  0.00    -0.348 OA
BRANCH 125 126
HETATM  126  C   UNL     1      -3.661   2.559   4.209  1.00  0.00     0.186 C 
HETATM  127  C   UNL     1      -4.167   2.301   2.767  1.00  0.00     0.176 C 
HETATM  128  O   UNL     1      -4.387   3.525   2.019  1.00  0.00    -0.379 OA
HETATM  129  C   UNL     1      -3.360   4.502   2.202  1.00  0.00     0.206 C 
HETATM  130  C   UNL     1      -3.342   5.031   3.651  1.00  0.00     0.272 C 
HETATM  131  C   UNL     1      -4.010   4.014   4.611  1.00  0.00     0.184 C 
BRANCH 127 132
HETATM  132  C   UNL     1      -3.233   1.398   1.946  1.00  0.00     0.198 C 
BRANCH 132 133
HETATM  133  O   UNL     1      -2.332   0.714   2.817  1.00  0.00    -0.398 OA
HETATM  134  H   UNL     1      -2.700   0.800   3.719  1.00  0.00     0.209 HD
ENDBRANCH 132 133
ENDBRANCH 127 132
BRANCH 130 135
HETATM  135  N   UNL     1      -3.975   6.359   3.792  1.00  0.00     0.087 N 
HETATM  136  H   UNL     1      -4.992   6.227   3.730  1.00  0.00     0.313 HD
HETATM  137  H   UNL     1      -3.738   6.968   3.009  1.00  0.00     0.313 HD
ENDBRANCH 130 135
BRANCH 131 138
HETATM  138  O   UNL     1      -5.439   4.227   4.605  1.00  0.00    -0.391 OA
HETATM  139  H   UNL     1      -5.850   3.397   4.912  1.00  0.00     0.210 HD
ENDBRANCH 131 138
ENDBRANCH 125 126
ENDBRANCH 119 125
BRANCH 120 140
HETATM  140  N   UNL     1      -4.274  -0.950   4.523  1.00  0.00     0.090 N 
HETATM  141  H   UNL     1      -3.650  -0.221   4.173  1.00  0.00     0.313 HD
HETATM  142  H   UNL     1      -4.373  -1.566   3.702  1.00  0.00     0.313 HD
ENDBRANCH 120 140
BRANCH 121 143
HETATM  143  O   UNL     1      -5.547  -0.875   7.133  1.00  0.00    -0.391 OA
HETATM  144  H   UNL     1      -4.790  -1.485   7.018  1.00  0.00     0.210 HD
ENDBRANCH 121 143
ENDBRANCH 115 116
ENDBRANCH   5 115
TORSDOF 58
ENDMDL
MODEL 3
REMARK VINA RESULT:      -6.1      8.043     15.468
REMARK WARNING: 32 MAX_TORS EXCEEDED!!!
REMARK  58 active torsions:
REMARK  status: ('A' for Active; 'I' for Inactive)
REMARK    1  A    between atoms: C_1  and  O_30 
REMARK    2  A    between atoms: C_2  and  C_6 
REMARK    3  A    between atoms: C_3  and  O_9 
REMARK    4  A    between atoms: C_4  and  N_11 
REMARK    5  A    between atoms: C_5  and  O_12 
REMARK    6  A    between atoms: C_6  and  O_7 
REMARK    7  A    between atoms: N_11  and  C_118 
REMARK    8  A    between atoms: O_12  and  C_20 
REMARK    9  A    between atoms: O_14  and  C_18 
REMARK   10  A    between atoms: C_16  and  C_23 
REMARK   11  A    between atoms: O_17  and  C_23 
REMARK   12  A    between atoms: O_19  and  C_22 
REMARK   13  A    between atoms: O_19  and  C_42 
REMARK   14  A    between atoms: N_21  and  C_24 
REMARK   15  A    between atoms: O_26  and  C_29 
REMARK   16  A    between atoms: C_28  and  C_34 
REMARK   17  A    between atoms: O_30  and  C_33 
REMARK   18  A    between atoms: C_31  and  O_53 
REMARK   19  A    between atoms: N_32  and  C_35 
REMARK   20  A    between atoms: C_34  and  O_65 
REMARK   21  A    between atoms: O_37  and  C_41 
REMARK   22  A    between atoms: C_39  and  C_45 
REMARK   23  A    between atoms: O_40  and  C_45 
REMARK   24  A    between atoms: N_43  and  C_46 
REMARK   25  A    between atoms: O_48  and  C_52 
REMARK   26  A    between atoms: C_50  and  C_57 
REMARK   27  A    between atoms: O_51  and  C_57 
REMARK   28  A    between atoms: O_53  and  C_56 
REMARK   29  A    between atoms: N_55  and  C_58 
REMARK   30  A    between atoms: N_55  and  C_71 
REMARK   31  A    between atoms: C_71  and  C_73 
REMARK   32  A    between atoms: C_73  and  C_74 
REMARK   33  A    between atoms: C_73  and  N_87 
REMARK   34  A    between atoms: C_74  and  C_75 
REMARK   35  A    between atoms: C_75  and  C_76 
REMARK   36  A    between atoms: C_75  and  N_101 
REMARK   37  A    between atoms: C_76  and  C_77 
REMARK   38  A    between atoms: C_77  and  C_78 
REMARK   39  A    between atoms: C_77  and  N_91 
REMARK   40  A    between atoms: C_78  and  C_79 
REMARK   41  A    between atoms: C_79  and  C_80 
REMARK   42  A    between atoms: C_79  and  N_106 
REMARK   43  A    between atoms: C_80  and  C_81 
REMARK   44  A    between atoms: C_81  and  N_96 
REMARK   45  A    between atoms: N_113  and  C_119 
REMARK   46  A    between atoms: C_118  and  C_119 
REMARK   47  A    between atoms: C_119  and  C_126 
REMARK   48  A    between atoms: N_122  and  C_128 
REMARK   49  A    between atoms: C_124  and  C_128 
REMARK   50  A    between atoms: C_124  and  C_130 
REMARK   51  A    between atoms: N_125  and  C_135 
REMARK   52  A    between atoms: C_126  and  C_130 
REMARK   53  A    between atoms: C_128  and  C_132 
REMARK   54  A    between atoms: N_129  and  C_130 
REMARK   55  A    between atoms: C_132  and  C_137 
REMARK   56  A    between atoms: C_135  and  C_136 
REMARK   57  A    between atoms: C_136  and  C_137 
REMARK   58  A    between atoms: C_137  and  N_140 
ROOT
HETATM    1  C   UNL     1       3.246 -20.155   0.521  1.00  0.00     0.186 C 
HETATM    2  C   UNL     1       2.733 -20.710  -0.864  1.00  0.00     0.179 C 
HETATM    3  C   UNL     1       4.372 -19.076   0.421  1.00  0.00     0.188 C 
HETATM    4  C   UNL     1       4.345 -18.234  -0.897  1.00  0.00     0.306 C 
HETATM    5  C   UNL     1       4.417 -19.405  -1.946  1.00  0.00     0.296 C 
HETATM    6  O   UNL     1       3.125 -19.970  -2.056  1.00  0.00    -0.349 OA
ENDROOT
BRANCH   1   7
HETATM    7  O   UNL     1       2.130 -19.675   1.296  1.00  0.00    -0.348 OA
BRANCH   7   8
HETATM    8  C   UNL     1       1.674 -20.579   2.328  1.00  0.00     0.296 C 
HETATM    9  O   UNL     1       0.273 -20.795   2.114  1.00  0.00    -0.349 OA
HETATM   10  C   UNL     1      -0.416 -21.570   3.121  1.00  0.00     0.179 C 
HETATM   11  C   UNL     1      -0.111 -21.094   4.558  1.00  0.00     0.186 C 
HETATM   12  C   UNL     1       0.660 -19.769   4.530  1.00  0.00     0.187 C 
HETATM   13  C   UNL     1       1.961 -19.963   3.743  1.00  0.00     0.303 C 
BRANCH  10  14
HETATM   14  C   UNL     1      -0.131 -23.075   2.949  1.00  0.00     0.198 C 
BRANCH  14  15
HETATM   15  O   UNL     1       0.896 -23.524   3.831  1.00  0.00    -0.398 OA
HETATM   16  H   UNL     1       1.669 -22.943   3.705  1.00  0.00     0.209 HD
ENDBRANCH  14  15
ENDBRANCH  10  14
BRANCH  11  17
HETATM   17  O   UNL     1      -1.296 -20.861   5.324  1.00  0.00    -0.348 OA
BRANCH  17  18
HETATM   18  C   UNL     1      -1.841 -22.005   5.966  1.00  0.00     0.296 C 
HETATM   19  O   UNL     1      -2.942 -21.601   6.776  1.00  0.00    -0.351 OA
HETATM   20  C   UNL     1      -3.117 -22.293   8.022  1.00  0.00     0.150 C 
HETATM   21  C   UNL     1      -2.771 -23.774   7.893  1.00  0.00     0.068 C 
HETATM   22  C   UNL     1      -1.348 -23.996   7.366  1.00  0.00     0.158 C 
HETATM   23  C   UNL     1      -0.698 -22.744   6.719  1.00  0.00     0.303 C 
BRANCH  20  24
HETATM   24  C   UNL     1      -4.570 -22.099   8.487  1.00  0.00     0.196 C 
BRANCH  24  25
HETATM   25  O   UNL     1      -4.974 -20.749   8.257  1.00  0.00    -0.398 OA
HETATM   26  H   UNL     1      -5.114 -20.335   9.125  1.00  0.00     0.209 HD
ENDBRANCH  24  25
ENDBRANCH  20  24
BRANCH  22  27
HETATM   27  O   UNL     1      -0.522 -24.491   8.424  1.00  0.00    -0.393 OA
HETATM   28  H   UNL     1      -1.011 -24.286   9.248  1.00  0.00     0.210 HD
ENDBRANCH  22  27
BRANCH  23  29
HETATM   29  N   UNL     1       0.013 -21.978   7.783  1.00  0.00     0.097 N 
HETATM   30  H   UNL     1      -0.365 -21.025   7.750  1.00  0.00     0.316 HD
BRANCH  29  31
HETATM   31  C   UNL     1       1.466 -21.798   7.625  1.00  0.00     0.296 C 
BRANCH  31  32
HETATM   32  C   UNL     1       2.412 -22.706   8.525  1.00  0.00     0.120 C 
BRANCH  32  33
HETATM   33  C   UNL     1       3.627 -21.850   9.046  1.00  0.00     0.053 C 
BRANCH  33  34
HETATM   34  C   UNL     1       5.012 -21.820   8.262  1.00  0.00     0.094 C 
BRANCH  34  35
HETATM   35  C   UNL     1       5.748 -23.216   8.366  1.00  0.00     0.051 C 
BRANCH  35  36
HETATM   36  C   UNL     1       7.253 -23.361   8.824  1.00  0.00     0.094 C 
BRANCH  36  37
HETATM   37  C   UNL     1       7.561 -22.552  10.134  1.00  0.00     0.051 C 
BRANCH  37  38
HETATM   38  C   UNL     1       8.886 -21.706  10.227  1.00  0.00     0.094 C 
BRANCH  38  39
HETATM   39  C   UNL     1       9.525 -21.468   8.810  1.00  0.00     0.051 C 
BRANCH  39  40
HETATM   40  C   UNL     1      10.884 -22.087   8.381  1.00  0.00     0.089 C 
HETATM   41  C   UNL     1      10.895 -22.266   6.850  1.00  0.00     0.033 C 
BRANCH  40  42
HETATM   42  N   UNL     1      12.072 -21.337   8.763  1.00  0.00    -0.334 N 
HETATM   43  C   UNL     1      13.363 -21.785   8.643  1.00  0.00     0.210 A 
HETATM   44  N   UNL     1      14.229 -20.867   9.005  1.00  0.00    -0.254 NA
HETATM   45  C   UNL     1      13.471 -19.785   9.370  1.00  0.00     0.150 A 
HETATM   46  C   UNL     1      12.128 -20.053   9.229  1.00  0.00     0.082 A 
ENDBRANCH  40  42
ENDBRANCH  39  40
ENDBRANCH  38  39
BRANCH  38  47
HETATM   47  N   UNL     1       8.972 -20.648  11.218  1.00  0.00    -0.345 N 
HETATM   48  C   UNL     1       9.269 -20.716  12.546  1.00  0.00     0.209 A 
HETATM   49  N   UNL     1       9.168 -19.543  13.131  1.00  0.00    -0.255 NA
HETATM   50  C   UNL     1       8.855 -18.660  12.141  1.00  0.00     0.135 A 
HETATM   51  C   UNL     1       8.726 -19.320  10.942  1.00  0.00     0.111 A 
ENDBRANCH  38  47
ENDBRANCH  37  38
ENDBRANCH  36  37
BRANCH  36  52
HETATM   52  N   UNL     1       7.627 -24.766   9.053  1.00  0.00    -0.345 N 
HETATM   53  C   UNL     1       6.769 -25.831   9.092  1.00  0.00     0.209 A 
HETATM   54  N   UNL     1       7.405 -26.971   9.238  1.00  0.00    -0.255 NA
HETATM   55  C   UNL     1       8.726 -26.641   9.312  1.00  0.00     0.135 A 
HETATM   56  C   UNL     1       8.892 -25.288   9.140  1.00  0.00     0.111 A 
ENDBRANCH  36  52
ENDBRANCH  35  36
ENDBRANCH  34  35
BRANCH  34  57
HETATM   57  N   UNL     1       4.981 -21.077   7.003  1.00  0.00    -0.345 N 
HETATM   58  C   UNL     1       4.857 -21.627   5.751  1.00  0.00     0.209 A 
HETATM   59  N   UNL     1       5.097 -20.763   4.792  1.00  0.00    -0.255 NA
HETATM   60  C   UNL     1       5.442 -19.611   5.431  1.00  0.00     0.135 A 
HETATM   61  C   UNL     1       5.436 -19.798   6.791  1.00  0.00     0.111 A 
ENDBRANCH  34  57
ENDBRANCH  33  34
ENDBRANCH  32  33
BRANCH  32  62
HETATM   62  N   UNL     1       2.746 -24.031   7.991  1.00  0.00    -0.344 N 
HETATM   63  C   UNL     1       3.123 -25.181   8.633  1.00  0.00     0.111 A 
HETATM   64  C   UNL     1       3.323 -26.128   7.658  1.00  0.00     0.135 A 
HETATM   65  N   UNL     1       3.127 -25.588   6.428  1.00  0.00    -0.255 NA
HETATM   66  C   UNL     1       2.800 -24.337   6.652  1.00  0.00     0.209 A 
ENDBRANCH  32  62
ENDBRANCH  31  32
ENDBRANCH  29  31
ENDBRANCH  23  29
ENDBRANCH  17  18
ENDBRANCH  11  17
BRANCH  12  67
HETATM   67  O   UNL     1      -0.123 -18.705   3.960  1.00  0.00    -0.391 OA
HETATM   68  H   UNL     1       0.007 -18.732   2.992  1.00  0.00     0.210 HD
ENDBRANCH  12  67
BRANCH  13  69
HETATM   69  N   UNL     1       2.711 -18.689   3.744  1.00  0.00     0.090 N 
HETATM   70  H   UNL     1       3.704 -18.939   3.690  1.00  0.00     0.313 HD
HETATM   71  H   UNL     1       2.609 -18.315   4.696  1.00  0.00     0.313 HD
ENDBRANCH  13  69
ENDBRANCH   7   8
ENDBRANCH   1   7
BRANCH   2  72
HETATM   72  C   UNL     1       3.159 -22.196  -1.009  1.00  0.00     0.198 C 
BRANCH  72  73
HETATM   73  O   UNL     1       3.900 -22.636   0.123  1.00  0.00    -0.398 OA
HETATM   74  H   UNL     1       4.822 -22.344   0.011  1.00  0.00     0.209 HD
ENDBRANCH  72  73
ENDBRANCH   2  72
BRANCH   3  75
HETATM   75  O   UNL     1       4.497 -18.286   1.602  1.00  0.00    -0.391 OA
HETATM   76  H   UNL     1       5.295 -17.735   1.507  1.00  0.00     0.210 HD
ENDBRANCH   3  75
BRANCH   4  77
HETATM   77  N   UNL     1       3.301 -17.139  -0.743  1.00  0.00     0.097 N 
HETATM   78  H   UNL     1       3.710 -16.407  -0.164  1.00  0.00     0.316 HD
BRANCH  77  79
HETATM   79  C   UNL     1       2.687 -16.497  -1.931  1.00  0.00     0.296 C 
BRANCH  79  80
HETATM   80  C   UNL     1       1.044 -16.272  -1.956  1.00  0.00     0.120 C 
BRANCH  80  81
HETATM   81  N   UNL     1       0.261 -17.487  -1.724  1.00  0.00    -0.344 N 
HETATM   82  C   UNL     1      -0.260 -17.976  -0.555  1.00  0.00     0.111 A 
HETATM   83  C   UNL     1      -0.810 -19.200  -0.869  1.00  0.00     0.135 A 
HETATM   84  N   UNL     1      -0.627 -19.482  -2.194  1.00  0.00    -0.255 NA
HETATM   85  C   UNL     1       0.035 -18.463  -2.664  1.00  0.00     0.209 A 
ENDBRANCH  80  81
BRANCH  80  86
HETATM   86  C   UNL     1       0.573 -14.972  -1.166  1.00  0.00     0.053 C 
BRANCH  86  87
HETATM   87  C   UNL     1       0.750 -13.416  -1.597  1.00  0.00     0.094 C 
BRANCH  87  88
HETATM   88  C   UNL     1       1.159 -13.127  -3.113  1.00  0.00     0.051 C 
BRANCH  88  89
HETATM   89  C   UNL     1       2.656 -12.647  -3.481  1.00  0.00     0.094 C 
BRANCH  89  90
HETATM   90  N   UNL     1       3.205 -13.284  -4.696  1.00  0.00    -0.345 N 
HETATM   91  C   UNL     1       3.585 -12.688  -5.868  1.00  0.00     0.111 A 
HETATM   92  C   UNL     1       3.860 -13.716  -6.742  1.00  0.00     0.135 A 
HETATM   93  N   UNL     1       3.630 -14.919  -6.152  1.00  0.00    -0.255 NA
HETATM   94  C   UNL     1       3.283 -14.635  -4.919  1.00  0.00     0.209 A 
ENDBRANCH  89  90
BRANCH  89  95
HETATM   95  C   UNL     1       3.699 -12.863  -2.309  1.00  0.00     0.051 C 
BRANCH  95  96
HETATM   96  C   UNL     1       5.261 -12.702  -2.575  1.00  0.00     0.094 C 
BRANCH  96  97
HETATM   97  C   UNL     1       5.674 -11.189  -2.772  1.00  0.00     0.051 C 
BRANCH  97  98
HETATM   98  C   UNL     1       5.636 -10.129  -1.628  1.00  0.00     0.089 C 
HETATM   99  C   UNL     1       6.388  -8.861  -2.083  1.00  0.00     0.033 C 
BRANCH  98 100
HETATM  100  N   UNL     1       4.305  -9.729  -1.184  1.00  0.00    -0.334 N 
HETATM  101  C   UNL     1       3.706 -10.035   0.007  1.00  0.00     0.082 A 
HETATM  102  C   UNL     1       2.434  -9.517  -0.092  1.00  0.00     0.150 A 
HETATM  103  N   UNL     1       2.243  -8.917  -1.310  1.00  0.00    -0.254 NA
HETATM  104  C   UNL     1       3.387  -9.050  -1.941  1.00  0.00     0.210 A 
ENDBRANCH  98 100
ENDBRANCH  97  98
ENDBRANCH  96  97
BRANCH  96 105
HETATM  105  N   UNL     1       6.202 -13.590  -1.914  1.00  0.00    -0.345 N 
HETATM  106  C   UNL     1       5.973 -14.673  -1.115  1.00  0.00     0.209 A 
HETATM  107  N   UNL     1       7.087 -15.151  -0.603  1.00  0.00    -0.255 NA
HETATM  108  C   UNL     1       8.089 -14.388  -1.123  1.00  0.00     0.135 A 
HETATM  109  C   UNL     1       7.570 -13.413  -1.939  1.00  0.00     0.111 A 
ENDBRANCH  96 105
ENDBRANCH  95  96
ENDBRANCH  89  95
ENDBRANCH  88  89
ENDBRANCH  87  88
BRANCH  87 110
HETATM  110  N   UNL     1      -0.172 -12.485  -0.931  1.00  0.00    -0.345 N 
HETATM  111  C   UNL     1      -0.523 -12.458   0.394  1.00  0.00     0.111 A 
HETATM  112  C   UNL     1      -1.218 -11.290   0.589  1.00  0.00     0.135 A 
HETATM  113  N   UNL     1      -1.225 -10.543  -0.549  1.00  0.00    -0.255 NA
HETATM  114  C   UNL     1      -0.567 -11.262  -1.428  1.00  0.00     0.209 A 
ENDBRANCH  87 110
ENDBRANCH  86  87
ENDBRANCH  80  86
ENDBRANCH  79  80
ENDBRANCH  77  79
ENDBRANCH   4  77
BRANCH   5 115
HETATM  115  O   UNL     1       5.066 -19.062  -3.187  1.00  0.00    -0.348 OA
BRANCH 115 116
HETATM  116  C   UNL     1       6.117 -18.036  -3.040  1.00  0.00     0.186 C 
HETATM  117  C   UNL     1       7.550 -18.628  -3.122  1.00  0.00     0.179 C 
HETATM  118  O   UNL     1       8.201 -18.347  -4.373  1.00  0.00    -0.349 OA
HETATM  119  C   UNL     1       8.396 -16.965  -4.689  1.00  0.00     0.296 C 
HETATM  120  C   UNL     1       7.142 -16.083  -4.358  1.00  0.00     0.303 C 
HETATM  121  C   UNL     1       5.881 -16.947  -4.111  1.00  0.00     0.187 C 
BRANCH 117 122
HETATM  122  C   UNL     1       8.448 -18.145  -1.961  1.00  0.00     0.198 C 
BRANCH 122 123
HETATM  123  O   UNL     1       8.383 -19.034  -0.849  1.00  0.00    -0.398 OA
HETATM  124  H   UNL     1       8.100 -18.521  -0.066  1.00  0.00     0.209 HD
ENDBRANCH 122 123
ENDBRANCH 117 122
BRANCH 119 125
HETATM  125  O   UNL     1       8.712 -16.879  -6.088  1.00  0.00    -0.348 OA
BRANCH 125 126
HETATM  126  C   UNL     1      10.098 -16.653  -6.416  1.00  0.00     0.186 C 
HETATM  127  C   UNL     1      10.364 -16.887  -7.925  1.00  0.00     0.176 C 
HETATM  128  O   UNL     1      11.266 -15.903  -8.497  1.00  0.00    -0.379 OA
HETATM  129  C   UNL     1      12.383 -15.595  -7.661  1.00  0.00     0.206 C 
HETATM  130  C   UNL     1      11.936 -14.881  -6.369  1.00  0.00     0.272 C 
HETATM  131  C   UNL     1      10.446 -15.185  -6.066  1.00  0.00     0.184 C 
BRANCH 127 132
HETATM  132  C   UNL     1      10.918 -18.286  -8.237  1.00  0.00     0.198 C 
BRANCH 132 133
HETATM  133  O   UNL     1       9.843 -19.180  -8.522  1.00  0.00    -0.398 OA
HETATM  134  H   UNL     1       9.547 -19.541  -7.663  1.00  0.00     0.209 HD
ENDBRANCH 132 133
ENDBRANCH 127 132
BRANCH 130 135
HETATM  135  N   UNL     1      12.162 -13.421  -6.406  1.00  0.00     0.087 N 
HETATM  136  H   UNL     1      11.293 -12.979  -6.729  1.00  0.00     0.313 HD
HETATM  137  H   UNL     1      12.862 -13.171  -7.103  1.00  0.00     0.313 HD
ENDBRANCH 130 135
BRANCH 131 138
HETATM  138  O   UNL     1       9.616 -14.261  -6.804  1.00  0.00    -0.391 OA
HETATM  139  H   UNL     1       8.730 -14.667  -6.866  1.00  0.00     0.210 HD
ENDBRANCH 131 138
ENDBRANCH 125 126
ENDBRANCH 119 125
BRANCH 120 140
HETATM  140  N   UNL     1       6.903 -15.022  -5.365  1.00  0.00     0.090 N 
HETATM  141  H   UNL     1       7.349 -14.159  -5.048  1.00  0.00     0.313 HD
HETATM  142  H   UNL     1       5.901 -14.794  -5.282  1.00  0.00     0.313 HD
ENDBRANCH 120 140
BRANCH 121 143
HETATM  143  O   UNL     1       5.393 -17.503  -5.333  1.00  0.00    -0.391 OA
HETATM  144  H   UNL     1       4.442 -17.276  -5.381  1.00  0.00     0.210 HD
ENDBRANCH 121 143
ENDBRANCH 115 116
ENDBRANCH   5 115
TORSDOF 58
ENDMDL
MODEL 4
REMARK VINA RESULT:      -6.0      5.571     14.443
REMARK WARNING: 32 MAX_TORS EXCEEDED!!!
REMARK  58 active torsions:
REMARK  status: ('A' for Active; 'I' for Inactive)
REMARK    1  A    between atoms: C_1  and  O_30 
REMARK    2  A    between atoms: C_2  and  C_6 
REMARK    3  A    between atoms: C_3  and  O_9 
REMARK    4  A    between atoms: C_4  and  N_11 
REMARK    5  A    between atoms: C_5  and  O_12 
REMARK    6  A    between atoms: C_6  and  O_7 
REMARK    7  A    between atoms: N_11  and  C_118 
REMARK    8  A    between atoms: O_12  and  C_20 
REMARK    9  A    between atoms: O_14  and  C_18 
REMARK   10  A    between atoms: C_16  and  C_23 
REMARK   11  A    between atoms: O_17  and  C_23 
REMARK   12  A    between atoms: O_19  and  C_22 
REMARK   13  A    between atoms: O_19  and  C_42 
REMARK   14  A    between atoms: N_21  and  C_24 
REMARK   15  A    between atoms: O_26  and  C_29 
REMARK   16  A    between atoms: C_28  and  C_34 
REMARK   17  A    between atoms: O_30  and  C_33 
REMARK   18  A    between atoms: C_31  and  O_53 
REMARK   19  A    between atoms: N_32  and  C_35 
REMARK   20  A    between atoms: C_34  and  O_65 
REMARK   21  A    between atoms: O_37  and  C_41 
REMARK   22  A    between atoms: C_39  and  C_45 
REMARK   23  A    between atoms: O_40  and  C_45 
REMARK   24  A    between atoms: N_43  and  C_46 
REMARK   25  A    between atoms: O_48  and  C_52 
REMARK   26  A    between atoms: C_50  and  C_57 
REMARK   27  A    between atoms: O_51  and  C_57 
REMARK   28  A    between atoms: O_53  and  C_56 
REMARK   29  A    between atoms: N_55  and  C_58 
REMARK   30  A    between atoms: N_55  and  C_71 
REMARK   31  A    between atoms: C_71  and  C_73 
REMARK   32  A    between atoms: C_73  and  C_74 
REMARK   33  A    between atoms: C_73  and  N_87 
REMARK   34  A    between atoms: C_74  and  C_75 
REMARK   35  A    between atoms: C_75  and  C_76 
REMARK   36  A    between atoms: C_75  and  N_101 
REMARK   37  A    between atoms: C_76  and  C_77 
REMARK   38  A    between atoms: C_77  and  C_78 
REMARK   39  A    between atoms: C_77  and  N_91 
REMARK   40  A    between atoms: C_78  and  C_79 
REMARK   41  A    between atoms: C_79  and  C_80 
REMARK   42  A    between atoms: C_79  and  N_106 
REMARK   43  A    between atoms: C_80  and  C_81 
REMARK   44  A    between atoms: C_81  and  N_96 
REMARK   45  A    between atoms: N_113  and  C_119 
REMARK   46  A    between atoms: C_118  and  C_119 
REMARK   47  A    between atoms: C_119  and  C_126 
REMARK   48  A    between atoms: N_122  and  C_128 
REMARK   49  A    between atoms: C_124  and  C_128 
REMARK   50  A    between atoms: C_124  and  C_130 
REMARK   51  A    between atoms: N_125  and  C_135 
REMARK   52  A    between atoms: C_126  and  C_130 
REMARK   53  A    between atoms: C_128  and  C_132 
REMARK   54  A    between atoms: N_129  and  C_130 
REMARK   55  A    between atoms: C_132  and  C_137 
REMARK   56  A    between atoms: C_135  and  C_136 
REMARK   57  A    between atoms: C_136  and  C_137 
REMARK   58  A    between atoms: C_137  and  N_140 
ROOT
HETATM    1  C   UNL     1      -1.422 -18.182  -2.784  1.00  0.00     0.186 C 
HETATM    2  C   UNL     1      -2.396 -17.422  -1.803  1.00  0.00     0.179 C 
HETATM    3  C   UNL     1      -0.341 -17.283  -3.467  1.00  0.00     0.188 C 
HETATM    4  C   UNL     1       0.071 -16.024  -2.634  1.00  0.00     0.306 C 
HETATM    5  C   UNL     1      -1.349 -15.372  -2.443  1.00  0.00     0.296 C 
HETATM    6  O   UNL     1      -2.013 -16.073  -1.410  1.00  0.00    -0.349 OA
ENDROOT
BRANCH   1   7
HETATM    7  O   UNL     1      -0.817 -19.298  -2.102  1.00  0.00    -0.348 OA
BRANCH   7   8
HETATM    8  C   UNL     1      -0.897 -19.243  -0.659  1.00  0.00     0.296 C 
HETATM    9  O   UNL     1       0.375 -18.785  -0.182  1.00  0.00    -0.349 OA
HETATM   10  C   UNL     1       0.558 -18.785   1.253  1.00  0.00     0.179 C 
HETATM   11  C   UNL     1       0.129 -20.113   1.913  1.00  0.00     0.186 C 
HETATM   12  C   UNL     1      -0.157 -21.174   0.843  1.00  0.00     0.187 C 
HETATM   13  C   UNL     1      -1.260 -20.660  -0.090  1.00  0.00     0.303 C 
BRANCH  10  14
HETATM   14  C   UNL     1      -0.149 -17.576   1.897  1.00  0.00     0.198 C 
BRANCH  14  15
HETATM   15  O   UNL     1      -0.143 -16.438   1.037  1.00  0.00    -0.398 OA
HETATM   16  H   UNL     1      -0.206 -15.643   1.598  1.00  0.00     0.209 HD
ENDBRANCH  14  15
ENDBRANCH  10  14
BRANCH  11  17
HETATM   17  O   UNL     1       1.140 -20.655   2.766  1.00  0.00    -0.348 OA
BRANCH  17  18
HETATM   18  C   UNL     1       2.452 -20.154   2.552  1.00  0.00     0.296 C 
HETATM   19  O   UNL     1       3.270 -21.201   2.038  1.00  0.00    -0.351 OA
HETATM   20  C   UNL     1       4.638 -21.227   2.477  1.00  0.00     0.150 C 
HETATM   21  C   UNL     1       5.206 -19.818   2.619  1.00  0.00     0.068 C 
HETATM   22  C   UNL     1       4.371 -18.945   3.564  1.00  0.00     0.158 C 
HETATM   23  C   UNL     1       2.956 -19.503   3.872  1.00  0.00     0.303 C 
BRANCH  20  24
HETATM   24  C   UNL     1       5.455 -22.059   1.473  1.00  0.00     0.196 C 
BRANCH  24  25
HETATM   25  O   UNL     1       4.620 -22.462   0.388  1.00  0.00    -0.398 OA
HETATM   26  H   UNL     1       4.464 -23.418   0.480  1.00  0.00     0.209 HD
ENDBRANCH  24  25
ENDBRANCH  20  24
BRANCH  22  27
HETATM   27  O   UNL     1       5.095 -18.734   4.780  1.00  0.00    -0.393 OA
HETATM   28  H   UNL     1       4.782 -17.869   5.117  1.00  0.00     0.210 HD
ENDBRANCH  22  27
BRANCH  23  29
HETATM   29  N   UNL     1       3.047 -20.387   5.068  1.00  0.00     0.097 N 
HETATM   30  H   UNL     1       2.356 -21.133   4.925  1.00  0.00     0.316 HD
BRANCH  29  31
HETATM   31  C   UNL     1       2.683 -19.801   6.369  1.00  0.00     0.296 C 
BRANCH  31  32
HETATM   32  C   UNL     1       1.441 -20.439   7.131  1.00  0.00     0.120 C 
BRANCH  32  33
HETATM   33  C   UNL     1       1.955 -21.401   8.266  1.00  0.00     0.053 C 
BRANCH  33  34
HETATM   34  C   UNL     1       3.217 -22.346   8.040  1.00  0.00     0.094 C 
BRANCH  34  35
HETATM   35  C   UNL     1       4.370 -21.999   9.066  1.00  0.00     0.051 C 
BRANCH  35  36
HETATM   36  C   UNL     1       5.901 -22.217   8.743  1.00  0.00     0.094 C 
BRANCH  36  37
HETATM   37  C   UNL     1       6.819 -21.952   9.989  1.00  0.00     0.051 C 
BRANCH  37  38
HETATM   38  C   UNL     1       7.714 -20.657  10.031  1.00  0.00     0.094 C 
BRANCH  38  39
HETATM   39  C   UNL     1       8.443 -20.498  11.416  1.00  0.00     0.051 C 
BRANCH  39  40
HETATM   40  C   UNL     1       9.830 -21.128  11.717  1.00  0.00     0.089 C 
HETATM   41  C   UNL     1      10.640 -20.162  12.604  1.00  0.00     0.033 C 
BRANCH  40  42
HETATM   42  N   UNL     1       9.808 -22.434  12.363  1.00  0.00    -0.334 N 
HETATM   43  C   UNL     1       9.116 -22.739  13.507  1.00  0.00     0.210 A 
HETATM   44  N   UNL     1       9.229 -24.010  13.815  1.00  0.00    -0.254 NA
HETATM   45  C   UNL     1      10.021 -24.547  12.834  1.00  0.00     0.150 A 
HETATM   46  C   UNL     1      10.394 -23.587  11.920  1.00  0.00     0.082 A 
ENDBRANCH  40  42
ENDBRANCH  39  40
ENDBRANCH  38  39
BRANCH  38  47
HETATM   47  N   UNL     1       8.412 -20.251   8.825  1.00  0.00    -0.345 N 
HETATM   48  C   UNL     1       8.679 -20.957   7.689  1.00  0.00     0.209 A 
HETATM   49  N   UNL     1       9.410 -20.264   6.843  1.00  0.00    -0.255 NA
HETATM   50  C   UNL     1       9.577 -19.037   7.414  1.00  0.00     0.135 A 
HETATM   51  C   UNL     1       8.969 -19.002   8.646  1.00  0.00     0.111 A 
ENDBRANCH  38  47
ENDBRANCH  37  38
ENDBRANCH  36  37
BRANCH  36  52
HETATM   52  N   UNL     1       6.174 -23.577   8.251  1.00  0.00    -0.345 N 
HETATM   53  C   UNL     1       6.553 -23.911   6.979  1.00  0.00     0.209 A 
HETATM   54  N   UNL     1       6.799 -25.196   6.861  1.00  0.00    -0.255 NA
HETATM   55  C   UNL     1       6.559 -25.726   8.093  1.00  0.00     0.135 A 
HETATM   56  C   UNL     1       6.228 -24.733   8.985  1.00  0.00     0.111 A 
ENDBRANCH  36  52
ENDBRANCH  35  36
ENDBRANCH  34  35
BRANCH  34  57
HETATM   57  N   UNL     1       2.886 -23.733   7.719  1.00  0.00    -0.345 N 
HETATM   58  C   UNL     1       2.683 -24.740   8.632  1.00  0.00     0.209 A 
HETATM   59  N   UNL     1       2.639 -25.927   8.074  1.00  0.00    -0.255 NA
HETATM   60  C   UNL     1       2.873 -25.707   6.751  1.00  0.00     0.135 A 
HETATM   61  C   UNL     1       3.088 -24.371   6.519  1.00  0.00     0.111 A 
ENDBRANCH  34  57
ENDBRANCH  33  34
ENDBRANCH  32  33
BRANCH  32  62
HETATM   62  N   UNL     1       0.358 -20.964   6.290  1.00  0.00    -0.344 N 
HETATM   63  C   UNL     1      -0.647 -20.314   5.624  1.00  0.00     0.111 A 
HETATM   64  C   UNL     1      -1.392 -21.281   4.996  1.00  0.00     0.135 A 
HETATM   65  N   UNL     1      -0.908 -22.515   5.288  1.00  0.00    -0.255 NA
HETATM   66  C   UNL     1       0.123 -22.301   6.072  1.00  0.00     0.209 A 
ENDBRANCH  32  62
ENDBRANCH  31  32
ENDBRANCH  29  31
ENDBRANCH  23  29
ENDBRANCH  17  18
ENDBRANCH  11  17
BRANCH  12  67
HETATM   67  O   UNL     1       1.024 -21.512   0.095  1.00  0.00    -0.391 OA
HETATM   68  H   UNL     1       0.936 -22.444  -0.185  1.00  0.00     0.210 HD
ENDBRANCH  12  67
BRANCH  13  69
HETATM   69  N   UNL     1      -1.548 -21.699  -1.100  1.00  0.00     0.090 N 
HETATM   70  H   UNL     1      -2.557 -21.657  -1.277  1.00  0.00     0.313 HD
HETATM   71  H   UNL     1      -1.428 -22.595  -0.611  1.00  0.00     0.313 HD
ENDBRANCH  13  69
ENDBRANCH   7   8
ENDBRANCH   1   7
BRANCH   2  72
HETATM   72  C   UNL     1      -3.824 -17.403  -2.413  1.00  0.00     0.198 C 
BRANCH  72  73
HETATM   73  O   UNL     1      -3.783 -17.196  -3.820  1.00  0.00    -0.398 OA
HETATM   74  H   UNL     1      -4.410 -17.815  -4.234  1.00  0.00     0.209 HD
ENDBRANCH  72  73
ENDBRANCH   2  72
BRANCH   3  75
HETATM   75  O   UNL     1       0.769 -18.024  -3.970  1.00  0.00    -0.391 OA
HETATM   76  H   UNL     1       1.559 -17.751  -3.469  1.00  0.00     0.210 HD
ENDBRANCH   3  75
BRANCH   4  77
HETATM   77  N   UNL     1       1.084 -16.456  -1.585  1.00  0.00     0.097 N 
HETATM   78  H   UNL     1       1.229 -17.458  -1.696  1.00  0.00     0.316 HD
BRANCH  77  79
HETATM   79  C   UNL     1       2.414 -15.805  -1.494  1.00  0.00     0.296 C 
BRANCH  79  80
HETATM   80  C   UNL     1       3.720 -16.561  -2.182  1.00  0.00     0.120 C 
BRANCH  80  81
HETATM   81  N   UNL     1       3.738 -18.015  -2.014  1.00  0.00    -0.344 N 
HETATM   82  C   UNL     1       3.666 -19.001  -2.964  1.00  0.00     0.111 A 
HETATM   83  C   UNL     1       3.611 -20.191  -2.270  1.00  0.00     0.135 A 
HETATM   84  N   UNL     1       3.630 -19.961  -0.923  1.00  0.00    -0.255 NA
HETATM   85  C   UNL     1       3.676 -18.664  -0.805  1.00  0.00     0.209 A 
ENDBRANCH  80  81
BRANCH  80  86
HETATM   86  C   UNL     1       4.070 -16.018  -3.637  1.00  0.00     0.053 C 
BRANCH  86  87
HETATM   87  C   UNL     1       5.444 -15.316  -4.144  1.00  0.00     0.094 C 
BRANCH  87  88
HETATM   88  C   UNL     1       6.619 -15.169  -3.072  1.00  0.00     0.051 C 
BRANCH  88  89
HETATM   89  C   UNL     1       8.162 -15.325  -3.521  1.00  0.00     0.094 C 
BRANCH  89  90
HETATM   90  N   UNL     1       8.852 -16.470  -2.892  1.00  0.00    -0.345 N 
HETATM   91  C   UNL     1       8.576 -17.076  -1.696  1.00  0.00     0.111 A 
HETATM   92  C   UNL     1       9.599 -17.970  -1.479  1.00  0.00     0.135 A 
HETATM   93  N   UNL     1      10.509 -17.908  -2.489  1.00  0.00    -0.255 NA
HETATM   94  C   UNL     1      10.018 -17.039  -3.340  1.00  0.00     0.209 A 
ENDBRANCH  89  90
BRANCH  89  95
HETATM   95  C   UNL     1       9.035 -14.031  -3.258  1.00  0.00     0.051 C 
BRANCH  95  96
HETATM   96  C   UNL     1       8.711 -12.667  -4.015  1.00  0.00     0.094 C 
BRANCH  96  97
HETATM   97  C   UNL     1       9.288 -12.658  -5.487  1.00  0.00     0.051 C 
BRANCH  97  98
HETATM   98  C   UNL     1      10.198 -13.787  -6.063  1.00  0.00     0.089 C 
HETATM   99  C   UNL     1       9.398 -14.609  -7.095  1.00  0.00     0.033 C 
BRANCH  98 100
HETATM  100  N   UNL     1      11.430 -13.338  -6.702  1.00  0.00    -0.334 N 
HETATM  101  C   UNL     1      11.609 -12.201  -7.443  1.00  0.00     0.082 A 
HETATM  102  C   UNL     1      12.904 -12.279  -7.904  1.00  0.00     0.150 A 
HETATM  103  N   UNL     1      13.509 -13.431  -7.474  1.00  0.00    -0.254 NA
HETATM  104  C   UNL     1      12.605 -14.043  -6.746  1.00  0.00     0.210 A 
ENDBRANCH  98 100
ENDBRANCH  97  98
ENDBRANCH  96  97
BRANCH  96 105
HETATM  105  N   UNL     1       7.455 -11.983  -3.766  1.00  0.00    -0.345 N 
HETATM  106  C   UNL     1       6.471 -11.612  -4.636  1.00  0.00     0.209 A 
HETATM  107  N   UNL     1       5.535 -10.900  -4.047  1.00  0.00    -0.255 NA
HETATM  108  C   UNL     1       5.888 -10.842  -2.732  1.00  0.00     0.135 A 
HETATM  109  C   UNL     1       7.074 -11.505  -2.529  1.00  0.00     0.111 A 
ENDBRANCH  96 105
ENDBRANCH  95  96
ENDBRANCH  89  95
ENDBRANCH  88  89
ENDBRANCH  87  88
BRANCH  87 110
HETATM  110  N   UNL     1       5.802 -15.603  -5.541  1.00  0.00    -0.345 N 
HETATM  111  C   UNL     1       6.013 -16.829  -6.115  1.00  0.00     0.111 A 
HETATM  112  C   UNL     1       6.095 -16.615  -7.470  1.00  0.00     0.135 A 
HETATM  113  N   UNL     1       5.842 -15.310  -7.763  1.00  0.00    -0.255 NA
HETATM  114  C   UNL     1       5.638 -14.736  -6.600  1.00  0.00     0.209 A 
ENDBRANCH  87 110
ENDBRANCH  86  87
ENDBRANCH  80  86
ENDBRANCH  79  80
ENDBRANCH  77  79
ENDBRANCH   4  77
BRANCH   5 115
HETATM  115  O   UNL     1      -1.341 -13.935  -2.330  1.00  0.00    -0.348 OA
BRANCH 115 116
HETATM  116  C   UNL     1      -0.137 -13.401  -1.663  1.00  0.00     0.186 C 
HETATM  117  C   UNL     1       0.546 -12.268  -2.476  1.00  0.00     0.179 C 
HETATM  118  O   UNL     1       0.314 -10.961  -1.918  1.00  0.00    -0.349 OA
HETATM  119  C   UNL     1       0.792 -10.748  -0.587  1.00  0.00     0.296 C 
HETATM  120  C   UNL     1       0.499 -11.959   0.365  1.00  0.00     0.303 C 
HETATM  121  C   UNL     1      -0.536 -12.934  -0.246  1.00  0.00     0.187 C 
BRANCH 117 122
HETATM  122  C   UNL     1       2.067 -12.493  -2.628  1.00  0.00     0.198 C 
BRANCH 122 123
HETATM  123  O   UNL     1       2.621 -11.642  -3.628  1.00  0.00    -0.398 OA
HETATM  124  H   UNL     1       2.729 -12.165  -4.447  1.00  0.00     0.209 HD
ENDBRANCH 122 123
ENDBRANCH 117 122
BRANCH 119 125
HETATM  125  O   UNL     1       0.164  -9.556  -0.086  1.00  0.00    -0.348 OA
BRANCH 125 126
HETATM  126  C   UNL     1      -0.053  -8.501  -1.044  1.00  0.00     0.186 C 
HETATM  127  C   UNL     1      -1.482  -7.913  -0.918  1.00  0.00     0.176 C 
HETATM  128  O   UNL     1      -1.511  -6.467  -1.052  1.00  0.00    -0.379 OA
HETATM  129  C   UNL     1      -0.674  -5.971  -2.098  1.00  0.00     0.206 C 
HETATM  130  C   UNL     1       0.817  -6.218  -1.788  1.00  0.00     0.272 C 
HETATM  131  C   UNL     1       0.978  -7.377  -0.772  1.00  0.00     0.184 C 
BRANCH 127 132
HETATM  132  C   UNL     1      -2.477  -8.508  -1.926  1.00  0.00     0.198 C 
BRANCH 132 133
HETATM  133  O   UNL     1      -2.370  -9.932  -1.930  1.00  0.00    -0.398 OA
HETATM  134  H   UNL     1      -2.177 -10.192  -2.852  1.00  0.00     0.209 HD
ENDBRANCH 132 133
ENDBRANCH 127 132
BRANCH 130 135
HETATM  135  N   UNL     1       1.515  -5.010  -1.300  1.00  0.00     0.087 N 
HETATM  136  H   UNL     1       0.800  -4.310  -1.066  1.00  0.00     0.313 HD
HETATM  137  H   UNL     1       2.075  -4.581  -2.036  1.00  0.00     0.313 HD
ENDBRANCH 130 135
BRANCH 131 138
HETATM  138  O   UNL     1       0.837  -6.854   0.567  1.00  0.00    -0.391 OA
HETATM  139  H   UNL     1      -0.083  -7.028   0.843  1.00  0.00     0.210 HD
ENDBRANCH 131 138
ENDBRANCH 125 126
ENDBRANCH 119 125
BRANCH 120 140
HETATM  140  N   UNL     1       0.126 -11.535   1.737  1.00  0.00     0.090 N 
HETATM  141  H   UNL     1       0.834 -10.887   2.086  1.00  0.00     0.313 HD
HETATM  142  H   UNL     1       0.281 -12.367   2.326  1.00  0.00     0.313 HD
ENDBRANCH 120 140
BRANCH 121 143
HETATM  143  O   UNL     1      -1.848 -12.367  -0.225  1.00  0.00    -0.391 OA
HETATM  144  H   UNL     1      -2.093 -12.199  -1.158  1.00  0.00     0.210 HD
ENDBRANCH 121 143
ENDBRANCH 115 116
ENDBRANCH   5 115
TORSDOF 58
ENDMDL
MODEL 5
REMARK VINA RESULT:      -6.0      6.483     13.780
REMARK WARNING: 32 MAX_TORS EXCEEDED!!!
REMARK  58 active torsions:
REMARK  status: ('A' for Active; 'I' for Inactive)
REMARK    1  A    between atoms: C_1  and  O_30 
REMARK    2  A    between atoms: C_2  and  C_6 
REMARK    3  A    between atoms: C_3  and  O_9 
REMARK    4  A    between atoms: C_4  and  N_11 
REMARK    5  A    between atoms: C_5  and  O_12 
REMARK    6  A    between atoms: C_6  and  O_7 
REMARK    7  A    between atoms: N_11  and  C_118 
REMARK    8  A    between atoms: O_12  and  C_20 
REMARK    9  A    between atoms: O_14  and  C_18 
REMARK   10  A    between atoms: C_16  and  C_23 
REMARK   11  A    between atoms: O_17  and  C_23 
REMARK   12  A    between atoms: O_19  and  C_22 
REMARK   13  A    between atoms: O_19  and  C_42 
REMARK   14  A    between atoms: N_21  and  C_24 
REMARK   15  A    between atoms: O_26  and  C_29 
REMARK   16  A    between atoms: C_28  and  C_34 
REMARK   17  A    between atoms: O_30  and  C_33 
REMARK   18  A    between atoms: C_31  and  O_53 
REMARK   19  A    between atoms: N_32  and  C_35 
REMARK   20  A    between atoms: C_34  and  O_65 
REMARK   21  A    between atoms: O_37  and  C_41 
REMARK   22  A    between atoms: C_39  and  C_45 
REMARK   23  A    between atoms: O_40  and  C_45 
REMARK   24  A    between atoms: N_43  and  C_46 
REMARK   25  A    between atoms: O_48  and  C_52 
REMARK   26  A    between atoms: C_50  and  C_57 
REMARK   27  A    between atoms: O_51  and  C_57 
REMARK   28  A    between atoms: O_53  and  C_56 
REMARK   29  A    between atoms: N_55  and  C_58 
REMARK   30  A    between atoms: N_55  and  C_71 
REMARK   31  A    between atoms: C_71  and  C_73 
REMARK   32  A    between atoms: C_73  and  C_74 
REMARK   33  A    between atoms: C_73  and  N_87 
REMARK   34  A    between atoms: C_74  and  C_75 
REMARK   35  A    between atoms: C_75  and  C_76 
REMARK   36  A    between atoms: C_75  and  N_101 
REMARK   37  A    between atoms: C_76  and  C_77 
REMARK   38  A    between atoms: C_77  and  C_78 
REMARK   39  A    between atoms: C_77  and  N_91 
REMARK   40  A    between atoms: C_78  and  C_79 
REMARK   41  A    between atoms: C_79  and  C_80 
REMARK   42  A    between atoms: C_79  and  N_106 
REMARK   43  A    between atoms: C_80  and  C_81 
REMARK   44  A    between atoms: C_81  and  N_96 
REMARK   45  A    between atoms: N_113  and  C_119 
REMARK   46  A    between atoms: C_118  and  C_119 
REMARK   47  A    between atoms: C_119  and  C_126 
REMARK   48  A    between atoms: N_122  and  C_128 
REMARK   49  A    between atoms: C_124  and  C_128 
REMARK   50  A    between atoms: C_124  and  C_130 
REMARK   51  A    between atoms: N_125  and  C_135 
REMARK   52  A    between atoms: C_126  and  C_130 
REMARK   53  A    between atoms: C_128  and  C_132 
REMARK   54  A    between atoms: N_129  and  C_130 
REMARK   55  A    between atoms: C_132  and  C_137 
REMARK   56  A    between atoms: C_135  and  C_136 
REMARK   57  A    between atoms: C_136  and  C_137 
REMARK   58  A    between atoms: C_137  and  N_140 
ROOT
HETATM    1  C   UNL     1       2.580 -19.654  -0.095  1.00  0.00     0.186 C 
HETATM    2  C   UNL     1       1.701 -20.068  -1.338  1.00  0.00     0.179 C 
HETATM    3  C   UNL     1       3.714 -18.623  -0.404  1.00  0.00     0.188 C 
HETATM    4  C   UNL     1       3.412 -17.674  -1.611  1.00  0.00     0.306 C 
HETATM    5  C   UNL     1       3.142 -18.757  -2.721  1.00  0.00     0.296 C 
HETATM    6  O   UNL     1       1.830 -19.250  -2.536  1.00  0.00    -0.349 OA
ENDROOT
BRANCH   1   7
HETATM    7  O   UNL     1       1.728 -19.189   0.971  1.00  0.00    -0.348 OA
BRANCH   7   8
HETATM    8  C   UNL     1       1.457 -20.165   2.002  1.00  0.00     0.296 C 
HETATM    9  O   UNL     1       0.042 -20.400   2.002  1.00  0.00    -0.349 OA
HETATM   10  C   UNL     1      -0.465 -21.252   3.055  1.00  0.00     0.179 C 
HETATM   11  C   UNL     1       0.064 -20.859   4.451  1.00  0.00     0.186 C 
HETATM   12  C   UNL     1       0.803 -19.517   4.386  1.00  0.00     0.187 C 
HETATM   13  C   UNL     1       1.962 -19.632   3.388  1.00  0.00     0.303 C 
BRANCH  10  14
HETATM   14  C   UNL     1      -0.193 -22.736   2.741  1.00  0.00     0.198 C 
BRANCH  14  15
HETATM   15  O   UNL     1      -0.469 -23.049   1.377  1.00  0.00    -0.398 OA
HETATM   16  H   UNL     1      -0.323 -24.005   1.257  1.00  0.00     0.209 HD
ENDBRANCH  14  15
ENDBRANCH  10  14
BRANCH  11  17
HETATM   17  O   UNL     1      -0.984 -20.701   5.412  1.00  0.00    -0.348 OA
BRANCH  17  18
HETATM   18  C   UNL     1      -1.492 -21.908   5.964  1.00  0.00     0.296 C 
HETATM   19  O   UNL     1      -2.645 -21.611   6.746  1.00  0.00    -0.351 OA
HETATM   20  C   UNL     1      -2.832 -22.383   7.943  1.00  0.00     0.150 C 
HETATM   21  C   UNL     1      -2.400 -23.833   7.745  1.00  0.00     0.068 C 
HETATM   22  C   UNL     1      -0.947 -23.950   7.269  1.00  0.00     0.158 C 
HETATM   23  C   UNL     1      -0.341 -22.629   6.723  1.00  0.00     0.303 C 
BRANCH  20  24
HETATM   24  C   UNL     1      -4.311 -22.292   8.354  1.00  0.00     0.196 C 
BRANCH  24  25
HETATM   25  O   UNL     1      -4.738 -20.931   8.326  1.00  0.00    -0.398 OA
HETATM   26  H   UNL     1      -4.431 -20.512   9.148  1.00  0.00     0.209 HD
ENDBRANCH  24  25
ENDBRANCH  20  24
BRANCH  22  27
HETATM   27  O   UNL     1      -0.139 -24.463   8.332  1.00  0.00    -0.393 OA
HETATM   28  H   UNL     1       0.751 -24.079   8.185  1.00  0.00     0.210 HD
ENDBRANCH  22  27
BRANCH  23  29
HETATM   29  N   UNL     1       0.283 -21.892   7.858  1.00  0.00     0.097 N 
HETATM   30  H   UNL     1      -0.163 -20.967   7.878  1.00  0.00     0.316 HD
BRANCH  29  31
HETATM   31  C   UNL     1       1.723 -21.597   7.759  1.00  0.00     0.296 C 
BRANCH  31  32
HETATM   32  C   UNL     1       2.711 -22.518   8.597  1.00  0.00     0.120 C 
BRANCH  32  33
HETATM   33  C   UNL     1       3.940 -21.666   9.088  1.00  0.00     0.053 C 
BRANCH  33  34
HETATM   34  C   UNL     1       5.337 -21.712   8.323  1.00  0.00     0.094 C 
BRANCH  34  35
HETATM   35  C   UNL     1       6.052 -23.105   8.543  1.00  0.00     0.051 C 
BRANCH  35  36
HETATM   36  C   UNL     1       7.614 -23.299   8.409  1.00  0.00     0.094 C 
BRANCH  36  37
HETATM   37  C   UNL     1       8.270 -23.811   9.741  1.00  0.00     0.051 C 
BRANCH  37  38
HETATM   38  C   UNL     1       9.234 -22.859  10.545  1.00  0.00     0.094 C 
BRANCH  38  39
HETATM   39  C   UNL     1      10.354 -22.254   9.622  1.00  0.00     0.051 C 
BRANCH  39  40
HETATM   40  C   UNL     1      10.731 -20.747   9.627  1.00  0.00     0.089 C 
HETATM   41  C   UNL     1      12.230 -20.600   9.301  1.00  0.00     0.033 C 
BRANCH  40  42
HETATM   42  N   UNL     1       9.977 -19.901   8.711  1.00  0.00    -0.334 N 
HETATM   43  C   UNL     1      10.528 -19.054   7.784  1.00  0.00     0.210 A 
HETATM   44  N   UNL     1       9.604 -18.471   7.054  1.00  0.00    -0.254 NA
HETATM   45  C   UNL     1       8.414 -18.960   7.527  1.00  0.00     0.150 A 
HETATM   46  C   UNL     1       8.620 -19.850   8.556  1.00  0.00     0.082 A 
ENDBRANCH  40  42
ENDBRANCH  39  40
ENDBRANCH  38  39
BRANCH  38  47
HETATM   47  N   UNL     1       8.680 -22.033  11.602  1.00  0.00    -0.345 N 
HETATM   48  C   UNL     1       7.538 -21.289  11.622  1.00  0.00     0.209 A 
HETATM   49  N   UNL     1       7.416 -20.610  12.742  1.00  0.00    -0.255 NA
HETATM   50  C   UNL     1       8.483 -20.969  13.511  1.00  0.00     0.135 A 
HETATM   51  C   UNL     1       9.285 -21.851  12.827  1.00  0.00     0.111 A 
ENDBRANCH  38  47
ENDBRANCH  37  38
ENDBRANCH  36  37
BRANCH  36  52
HETATM   52  N   UNL     1       7.963 -24.242   7.334  1.00  0.00    -0.345 N 
HETATM   53  C   UNL     1       7.080 -24.898   6.521  1.00  0.00     0.209 A 
HETATM   54  N   UNL     1       7.692 -25.613   5.604  1.00  0.00    -0.255 NA
HETATM   55  C   UNL     1       9.024 -25.431   5.833  1.00  0.00     0.135 A 
HETATM   56  C   UNL     1       9.215 -24.538   6.861  1.00  0.00     0.111 A 
ENDBRANCH  36  52
ENDBRANCH  35  36
ENDBRANCH  34  35
BRANCH  34  57
HETATM   57  N   UNL     1       5.332 -21.066   7.012  1.00  0.00    -0.345 N 
HETATM   58  C   UNL     1       4.888 -19.793   6.749  1.00  0.00     0.209 A 
HETATM   59  N   UNL     1       4.773 -19.554   5.463  1.00  0.00    -0.255 NA
HETATM   60  C   UNL     1       5.103 -20.725   4.852  1.00  0.00     0.135 A 
HETATM   61  C   UNL     1       5.392 -21.687   5.788  1.00  0.00     0.111 A 
ENDBRANCH  34  57
ENDBRANCH  33  34
ENDBRANCH  32  33
BRANCH  32  62
HETATM   62  N   UNL     1       3.032 -23.828   8.018  1.00  0.00    -0.344 N 
HETATM   63  C   UNL     1       3.411 -24.999   8.619  1.00  0.00     0.111 A 
HETATM   64  C   UNL     1       3.596 -25.916   7.613  1.00  0.00     0.135 A 
HETATM   65  N   UNL     1       3.388 -25.337   6.403  1.00  0.00    -0.255 NA
HETATM   66  C   UNL     1       3.070 -24.092   6.669  1.00  0.00     0.209 A 
ENDBRANCH  32  62
ENDBRANCH  31  32
ENDBRANCH  29  31
ENDBRANCH  23  29
ENDBRANCH  17  18
ENDBRANCH  11  17
BRANCH  12  67
HETATM   67  O   UNL     1      -0.075 -18.439   4.020  1.00  0.00    -0.391 OA
HETATM   68  H   UNL     1      -0.946 -18.622   4.423  1.00  0.00     0.210 HD
ENDBRANCH  12  67
BRANCH  13  69
HETATM   69  N   UNL     1       2.686 -18.345   3.352  1.00  0.00     0.090 N 
HETATM   70  H   UNL     1       3.664 -18.557   3.575  1.00  0.00     0.313 HD
HETATM   71  H   UNL     1       2.359 -17.825   4.176  1.00  0.00     0.313 HD
ENDBRANCH  13  69
ENDBRANCH   7   8
ENDBRANCH   1   7
BRANCH   2  72
HETATM   72  C   UNL     1       1.979 -21.555  -1.688  1.00  0.00     0.198 C 
BRANCH  72  73
HETATM   73  O   UNL     1       0.982 -22.411  -1.143  1.00  0.00    -0.398 OA
HETATM   74  H   UNL     1       0.253 -22.472  -1.784  1.00  0.00     0.209 HD
ENDBRANCH  72  73
ENDBRANCH   2  72
BRANCH   3  75
HETATM   75  O   UNL     1       4.182 -17.940   0.758  1.00  0.00    -0.391 OA
HETATM   76  H   UNL     1       3.563 -18.134   1.485  1.00  0.00     0.210 HD
ENDBRANCH   3  75
BRANCH   4  77
HETATM   77  N   UNL     1       2.514 -16.549  -1.121  1.00  0.00     0.097 N 
HETATM   78  H   UNL     1       2.483 -16.606  -0.104  1.00  0.00     0.316 HD
BRANCH  77  79
HETATM   79  C   UNL     1       2.784 -15.139  -1.496  1.00  0.00     0.296 C 
BRANCH  79  80
HETATM   80  C   UNL     1       1.518 -14.068  -1.533  1.00  0.00     0.120 C 
BRANCH  80  81
HETATM   81  N   UNL     1       0.304 -14.539  -0.862  1.00  0.00    -0.344 N 
HETATM   82  C   UNL     1      -0.713 -15.317  -1.349  1.00  0.00     0.111 A 
HETATM   83  C   UNL     1      -1.660 -15.371  -0.348  1.00  0.00     0.135 A 
HETATM   84  N   UNL     1      -1.259 -14.635   0.731  1.00  0.00    -0.255 NA
HETATM   85  C   UNL     1      -0.108 -14.132   0.384  1.00  0.00     0.209 A 
ENDBRANCH  80  81
BRANCH  80  86
HETATM   86  C   UNL     1       1.951 -12.568  -1.229  1.00  0.00     0.053 C 
BRANCH  86  87
HETATM   87  C   UNL     1       2.994 -11.635  -2.055  1.00  0.00     0.094 C 
BRANCH  87  88
HETATM   88  C   UNL     1       2.400 -10.797  -3.278  1.00  0.00     0.051 C 
BRANCH  88  89
HETATM   89  C   UNL     1       1.131  -9.822  -3.064  1.00  0.00     0.094 C 
BRANCH  89  90
HETATM   90  N   UNL     1       0.619  -9.227  -4.315  1.00  0.00    -0.345 N 
HETATM   91  C   UNL     1      -0.633  -9.339  -4.859  1.00  0.00     0.111 A 
HETATM   92  C   UNL     1      -0.559  -8.753  -6.102  1.00  0.00     0.135 A 
HETATM   93  N   UNL     1       0.705  -8.314  -6.349  1.00  0.00    -0.255 NA
HETATM   94  C   UNL     1       1.377  -8.570  -5.251  1.00  0.00     0.209 A 
ENDBRANCH  89  90
BRANCH  89  95
HETATM   95  C   UNL     1       1.399  -8.643  -2.042  1.00  0.00     0.051 C 
BRANCH  95  96
HETATM   96  C   UNL     1       0.292  -8.226  -0.976  1.00  0.00     0.094 C 
BRANCH  96  97
HETATM   97  C   UNL     1      -0.039  -6.682  -1.042  1.00  0.00     0.051 C 
BRANCH  97  98
HETATM   98  C   UNL     1       0.984  -5.600  -1.508  1.00  0.00     0.089 C 
HETATM   99  C   UNL     1       0.352  -4.751  -2.630  1.00  0.00     0.033 C 
BRANCH  98 100
HETATM  100  N   UNL     1       1.458  -4.693  -0.469  1.00  0.00    -0.334 N 
HETATM  101  C   UNL     1       1.363  -4.867   0.885  1.00  0.00     0.082 A 
HETATM  102  C   UNL     1       1.860  -3.703   1.428  1.00  0.00     0.150 A 
HETATM  103  N   UNL     1       2.242  -2.828   0.444  1.00  0.00    -0.254 NA
HETATM  104  C   UNL     1       2.000  -3.452  -0.684  1.00  0.00     0.210 A 
ENDBRANCH  98 100
ENDBRANCH  97  98
ENDBRANCH  96  97
BRANCH  96 105
HETATM  105  N   UNL     1      -0.785  -9.146  -0.654  1.00  0.00    -0.345 N 
HETATM  106  C   UNL     1      -0.753 -10.330   0.025  1.00  0.00     0.209 A 
HETATM  107  N   UNL     1      -1.920 -10.937   0.010  1.00  0.00    -0.255 NA
HETATM  108  C   UNL     1      -2.762 -10.102  -0.660  1.00  0.00     0.135 A 
HETATM  109  C   UNL     1      -2.085  -8.984  -1.083  1.00  0.00     0.111 A 
ENDBRANCH  96 105
ENDBRANCH  95  96
ENDBRANCH  89  95
ENDBRANCH  88  89
ENDBRANCH  87  88
BRANCH  87 110
HETATM  110  N   UNL     1       4.056 -11.029  -1.241  1.00  0.00    -0.345 N 
HETATM  111  C   UNL     1       5.308 -10.647  -1.648  1.00  0.00     0.111 A 
HETATM  112  C   UNL     1       5.853  -9.931  -0.610  1.00  0.00     0.135 A 
HETATM  113  N   UNL     1       4.943  -9.772   0.390  1.00  0.00    -0.255 NA
HETATM  114  C   UNL     1       3.871 -10.406  -0.025  1.00  0.00     0.209 A 
ENDBRANCH  87 110
ENDBRANCH  86  87
ENDBRANCH  80  86
ENDBRANCH  79  80
ENDBRANCH  77  79
ENDBRANCH   4  77
BRANCH   5 115
HETATM  115  O   UNL     1       3.481 -18.343  -4.060  1.00  0.00    -0.348 OA
BRANCH 115 116
HETATM  116  C   UNL     1       2.305 -18.054  -4.905  1.00  0.00     0.186 C 
HETATM  117  C   UNL     1       1.729 -16.632  -4.666  1.00  0.00     0.179 C 
HETATM  118  O   UNL     1       2.046 -15.714  -5.728  1.00  0.00    -0.349 OA
HETATM  119  C   UNL     1       1.554 -16.056  -7.028  1.00  0.00     0.296 C 
HETATM  120  C   UNL     1       1.732 -17.578  -7.363  1.00  0.00     0.303 C 
HETATM  121  C   UNL     1       2.705 -18.274  -6.381  1.00  0.00     0.187 C 
BRANCH 117 122
HETATM  122  C   UNL     1       0.200 -16.650  -4.449  1.00  0.00     0.198 C 
BRANCH 122 123
HETATM  123  O   UNL     1      -0.265 -17.959  -4.132  1.00  0.00    -0.398 OA
HETATM  124  H   UNL     1      -0.208 -18.506  -4.940  1.00  0.00     0.209 HD
ENDBRANCH 122 123
ENDBRANCH 117 122
BRANCH 119 125
HETATM  125  O   UNL     1       2.258 -15.248  -7.984  1.00  0.00    -0.348 OA
BRANCH 125 126
HETATM  126  C   UNL     1       2.718 -13.963  -7.518  1.00  0.00     0.186 C 
HETATM  127  C   UNL     1       4.179 -13.695  -7.959  1.00  0.00     0.176 C 
HETATM  128  O   UNL     1       4.396 -12.325  -8.387  1.00  0.00    -0.379 OA
HETATM  129  C   UNL     1       3.760 -11.355  -7.552  1.00  0.00     0.206 C 
HETATM  130  C   UNL     1       2.224 -11.461  -7.639  1.00  0.00     0.272 C 
HETATM  131  C   UNL     1       1.802 -12.871  -8.124  1.00  0.00     0.184 C 
BRANCH 127 132
HETATM  132  C   UNL     1       5.214 -14.028  -6.872  1.00  0.00     0.198 C 
BRANCH 132 133
HETATM  133  O   UNL     1       4.802 -15.188  -6.150  1.00  0.00    -0.398 OA
HETATM  134  H   UNL     1       3.874 -15.032  -5.881  1.00  0.00     0.209 HD
ENDBRANCH 132 133
ENDBRANCH 127 132
BRANCH 130 135
HETATM  135  N   UNL     1       1.619 -10.422  -8.499  1.00  0.00     0.087 N 
HETATM  136  H   UNL     1       1.725 -10.725  -9.475  1.00  0.00     0.313 HD
HETATM  137  H   UNL     1       2.133  -9.543  -8.438  1.00  0.00     0.313 HD
ENDBRANCH 130 135
BRANCH 131 138
HETATM  138  O   UNL     1       1.836 -12.904  -9.568  1.00  0.00    -0.391 OA
HETATM  139  H   UNL     1       2.686 -12.509  -9.839  1.00  0.00     0.210 HD
ENDBRANCH 131 138
ENDBRANCH 125 126
ENDBRANCH 119 125
BRANCH 120 140
HETATM  140  N   UNL     1       2.104 -17.815  -8.779  1.00  0.00     0.090 N 
HETATM  141  H   UNL     1       1.814 -18.758  -9.043  1.00  0.00     0.313 HD
HETATM  142  H   UNL     1       3.132 -17.894  -8.776  1.00  0.00     0.313 HD
ENDBRANCH 120 140
BRANCH 121 143
HETATM  143  O   UNL     1       4.056 -17.875  -6.628  1.00  0.00    -0.391 OA
HETATM  144  H   UNL     1       4.016 -17.164  -7.300  1.00  0.00     0.210 HD
ENDBRANCH 121 143
ENDBRANCH 115 116
ENDBRANCH   5 115
TORSDOF 58
ENDMDL
MODEL 6
REMARK VINA RESULT:      -6.0      5.139     15.572
REMARK WARNING: 32 MAX_TORS EXCEEDED!!!
REMARK  58 active torsions:
REMARK  status: ('A' for Active; 'I' for Inactive)
REMARK    1  A    between atoms: C_1  and  O_30 
REMARK    2  A    between atoms: C_2  and  C_6 
REMARK    3  A    between atoms: C_3  and  O_9 
REMARK    4  A    between atoms: C_4  and  N_11 
REMARK    5  A    between atoms: C_5  and  O_12 
REMARK    6  A    between atoms: C_6  and  O_7 
REMARK    7  A    between atoms: N_11  and  C_118 
REMARK    8  A    between atoms: O_12  and  C_20 
REMARK    9  A    between atoms: O_14  and  C_18 
REMARK   10  A    between atoms: C_16  and  C_23 
REMARK   11  A    between atoms: O_17  and  C_23 
REMARK   12  A    between atoms: O_19  and  C_22 
REMARK   13  A    between atoms: O_19  and  C_42 
REMARK   14  A    between atoms: N_21  and  C_24 
REMARK   15  A    between atoms: O_26  and  C_29 
REMARK   16  A    between atoms: C_28  and  C_34 
REMARK   17  A    between atoms: O_30  and  C_33 
REMARK   18  A    between atoms: C_31  and  O_53 
REMARK   19  A    between atoms: N_32  and  C_35 
REMARK   20  A    between atoms: C_34  and  O_65 
REMARK   21  A    between atoms: O_37  and  C_41 
REMARK   22  A    between atoms: C_39  and  C_45 
REMARK   23  A    between atoms: O_40  and  C_45 
REMARK   24  A    between atoms: N_43  and  C_46 
REMARK   25  A    between atoms: O_48  and  C_52 
REMARK   26  A    between atoms: C_50  and  C_57 
REMARK   27  A    between atoms: O_51  and  C_57 
REMARK   28  A    between atoms: O_53  and  C_56 
REMARK   29  A    between atoms: N_55  and  C_58 
REMARK   30  A    between atoms: N_55  and  C_71 
REMARK   31  A    between atoms: C_71  and  C_73 
REMARK   32  A    between atoms: C_73  and  C_74 
REMARK   33  A    between atoms: C_73  and  N_87 
REMARK   34  A    between atoms: C_74  and  C_75 
REMARK   35  A    between atoms: C_75  and  C_76 
REMARK   36  A    between atoms: C_75  and  N_101 
REMARK   37  A    between atoms: C_76  and  C_77 
REMARK   38  A    between atoms: C_77  and  C_78 
REMARK   39  A    between atoms: C_77  and  N_91 
REMARK   40  A    between atoms: C_78  and  C_79 
REMARK   41  A    between atoms: C_79  and  C_80 
REMARK   42  A    between atoms: C_79  and  N_106 
REMARK   43  A    between atoms: C_80  and  C_81 
REMARK   44  A    between atoms: C_81  and  N_96 
REMARK   45  A    between atoms: N_113  and  C_119 
REMARK   46  A    between atoms: C_118  and  C_119 
REMARK   47  A    between atoms: C_119  and  C_126 
REMARK   48  A    between atoms: N_122  and  C_128 
REMARK   49  A    between atoms: C_124  and  C_128 
REMARK   50  A    between atoms: C_124  and  C_130 
REMARK   51  A    between atoms: N_125  and  C_135 
REMARK   52  A    between atoms: C_126  and  C_130 
REMARK   53  A    between atoms: C_128  and  C_132 
REMARK   54  A    between atoms: N_129  and  C_130 
REMARK   55  A    between atoms: C_132  and  C_137 
REMARK   56  A    between atoms: C_135  and  C_136 
REMARK   57  A    between atoms: C_136  and  C_137 
REMARK   58  A    between atoms: C_137  and  N_140 
ROOT
HETATM    1  C   UNL     1       1.875 -18.726  -0.985  1.00  0.00     0.186 C 
HETATM    2  C   UNL     1       3.229 -18.325  -0.280  1.00  0.00     0.179 C 
HETATM    3  C   UNL     1       1.833 -20.183  -1.549  1.00  0.00     0.188 C 
HETATM    4  C   UNL     1       2.752 -21.197  -0.790  1.00  0.00     0.306 C 
HETATM    5  C   UNL     1       4.127 -20.443  -0.927  1.00  0.00     0.296 C 
HETATM    6  O   UNL     1       4.153 -19.407   0.034  1.00  0.00    -0.349 OA
ENDROOT
BRANCH   1   7
HETATM    7  O   UNL     1       0.771 -18.479  -0.092  1.00  0.00    -0.348 OA
BRANCH   7   8
HETATM    8  C   UNL     1      -0.282 -17.656  -0.643  1.00  0.00     0.296 C 
HETATM    9  O   UNL     1       0.259 -16.985  -1.789  1.00  0.00    -0.349 OA
HETATM   10  C   UNL     1      -0.593 -16.001  -2.417  1.00  0.00     0.179 C 
HETATM   11  C   UNL     1      -1.219 -15.017  -1.405  1.00  0.00     0.186 C 
HETATM   12  C   UNL     1      -0.583 -15.195  -0.022  1.00  0.00     0.187 C 
HETATM   13  C   UNL     1      -0.789 -16.642   0.442  1.00  0.00     0.303 C 
BRANCH  10  14
HETATM   14  C   UNL     1      -1.668 -16.680  -3.289  1.00  0.00     0.198 C 
BRANCH  14  15
HETATM   15  O   UNL     1      -2.971 -16.545  -2.725  1.00  0.00    -0.398 OA
HETATM   16  H   UNL     1      -3.004 -15.690  -2.257  1.00  0.00     0.209 HD
ENDBRANCH  14  15
ENDBRANCH  10  14
BRANCH  11  17
HETATM   17  O   UNL     1      -1.021 -13.649  -1.773  1.00  0.00    -0.348 OA
BRANCH  17  18
HETATM   18  C   UNL     1      -1.630 -12.693  -0.917  1.00  0.00     0.296 C 
HETATM   19  O   UNL     1      -2.984 -12.507  -1.319  1.00  0.00    -0.351 OA
HETATM   20  C   UNL     1      -3.514 -11.175  -1.212  1.00  0.00     0.150 C 
HETATM   21  C   UNL     1      -2.984 -10.462   0.029  1.00  0.00     0.068 C 
HETATM   22  C   UNL     1      -1.451 -10.420   0.068  1.00  0.00     0.158 C 
HETATM   23  C   UNL     1      -0.756 -11.406  -0.908  1.00  0.00     0.303 C 
BRANCH  20  24
HETATM   24  C   UNL     1      -5.049 -11.263  -1.192  1.00  0.00     0.196 C 
BRANCH  24  25
HETATM   25  O   UNL     1      -5.472 -12.085  -0.104  1.00  0.00    -0.398 OA
HETATM   26  H   UNL     1      -4.672 -12.407   0.346  1.00  0.00     0.209 HD
ENDBRANCH  24  25
ENDBRANCH  20  24
BRANCH  22  27
HETATM   27  O   UNL     1      -1.007  -9.082  -0.181  1.00  0.00    -0.393 OA
HETATM   28  H   UNL     1      -1.778  -8.514   0.024  1.00  0.00     0.210 HD
ENDBRANCH  22  27
BRANCH  23  29
HETATM   29  N   UNL     1      -0.558 -10.717  -2.215  1.00  0.00     0.097 N 
HETATM   30  H   UNL     1      -1.077 -11.267  -2.910  1.00  0.00     0.316 HD
BRANCH  29  31
HETATM   31  C   UNL     1       0.814 -10.663  -2.748  1.00  0.00     0.296 C 
BRANCH  31  32
HETATM   32  C   UNL     1       1.987 -10.404  -1.706  1.00  0.00     0.120 C 
BRANCH  32  33
HETATM   33  C   UNL     1       2.423  -8.892  -1.766  1.00  0.00     0.053 C 
BRANCH  33  34
HETATM   34  C   UNL     1       3.104  -8.280  -3.070  1.00  0.00     0.094 C 
BRANCH  34  35
HETATM   35  C   UNL     1       2.583  -6.812  -3.340  1.00  0.00     0.051 C 
BRANCH  35  36
HETATM   36  C   UNL     1       2.642  -5.666  -2.254  1.00  0.00     0.094 C 
BRANCH  36  37
HETATM   37  C   UNL     1       3.591  -4.489  -2.676  1.00  0.00     0.051 C 
BRANCH  37  38
HETATM   38  C   UNL     1       3.382  -3.787  -4.070  1.00  0.00     0.094 C 
BRANCH  38  39
HETATM   39  C   UNL     1       2.781  -2.342  -3.909  1.00  0.00     0.051 C 
BRANCH  39  40
HETATM   40  C   UNL     1       3.147  -1.402  -2.727  1.00  0.00     0.089 C 
HETATM   41  C   UNL     1       4.497  -0.721  -3.024  1.00  0.00     0.033 C 
BRANCH  40  42
HETATM   42  N   UNL     1       2.171  -0.367  -2.413  1.00  0.00    -0.334 N 
HETATM   43  C   UNL     1       2.314   0.967  -2.698  1.00  0.00     0.210 A 
HETATM   44  N   UNL     1       1.245   1.650  -2.359  1.00  0.00    -0.254 NA
HETATM   45  C   UNL     1       0.379   0.724  -1.839  1.00  0.00     0.150 A 
HETATM   46  C   UNL     1       0.931  -0.537  -1.862  1.00  0.00     0.082 A 
ENDBRANCH  40  42
ENDBRANCH  39  40
ENDBRANCH  38  39
BRANCH  38  47
HETATM   47  N   UNL     1       4.349  -4.026  -5.125  1.00  0.00    -0.345 N 
HETATM   48  C   UNL     1       4.529  -5.124  -5.913  1.00  0.00     0.209 A 
HETATM   49  N   UNL     1       5.569  -4.991  -6.707  1.00  0.00    -0.255 NA
HETATM   50  C   UNL     1       6.052  -3.737  -6.479  1.00  0.00     0.135 A 
HETATM   51  C   UNL     1       5.314  -3.116  -5.501  1.00  0.00     0.111 A 
ENDBRANCH  38  47
ENDBRANCH  37  38
ENDBRANCH  36  37
BRANCH  36  52
HETATM   52  N   UNL     1       1.311  -5.105  -1.971  1.00  0.00    -0.345 N 
HETATM   53  C   UNL     1       1.009  -4.213  -0.977  1.00  0.00     0.209 A 
HETATM   54  N   UNL     1      -0.249  -3.836  -1.021  1.00  0.00    -0.255 NA
HETATM   55  C   UNL     1      -0.794  -4.513  -2.070  1.00  0.00     0.135 A 
HETATM   56  C   UNL     1       0.167  -5.260  -2.710  1.00  0.00     0.111 A 
ENDBRANCH  36  52
ENDBRANCH  35  36
ENDBRANCH  34  35
BRANCH  34  57
HETATM   57  N   UNL     1       4.517  -8.621  -3.232  1.00  0.00    -0.345 N 
HETATM   58  C   UNL     1       5.017  -9.577  -4.081  1.00  0.00     0.209 A 
HETATM   59  N   UNL     1       6.283  -9.842  -3.854  1.00  0.00    -0.255 NA
HETATM   60  C   UNL     1       6.621  -9.072  -2.784  1.00  0.00     0.135 A 
HETATM   61  C   UNL     1       5.534  -8.357  -2.346  1.00  0.00     0.111 A 
ENDBRANCH  34  57
ENDBRANCH  33  34
ENDBRANCH  32  33
BRANCH  32  62
HETATM   62  N   UNL     1       3.079 -11.384  -1.694  1.00  0.00    -0.344 N 
HETATM   63  C   UNL     1       4.219 -11.438  -0.937  1.00  0.00     0.111 A 
HETATM   64  C   UNL     1       4.902 -12.561  -1.333  1.00  0.00     0.135 A 
HETATM   65  N   UNL     1       4.244 -13.182  -2.346  1.00  0.00    -0.255 NA
HETATM   66  C   UNL     1       3.171 -12.453  -2.553  1.00  0.00     0.209 A 
ENDBRANCH  32  62
ENDBRANCH  31  32
ENDBRANCH  29  31
ENDBRANCH  23  29
ENDBRANCH  17  18
ENDBRANCH  11  17
BRANCH  12  67
HETATM   67  O   UNL     1       0.816 -14.859  -0.028  1.00  0.00    -0.391 OA
HETATM   68  H   UNL     1       1.292 -15.580   0.428  1.00  0.00     0.210 HD
ENDBRANCH  12  67
BRANCH  13  69
HETATM   69  N   UNL     1      -0.198 -16.797   1.787  1.00  0.00     0.090 N 
HETATM   70  H   UNL     1       0.814 -16.888   1.649  1.00  0.00     0.313 HD
HETATM   71  H   UNL     1      -0.481 -17.733   2.103  1.00  0.00     0.313 HD
ENDBRANCH  13  69
ENDBRANCH   7   8
ENDBRANCH   1   7
BRANCH   2  72
HETATM   72  C   UNL     1       3.954 -17.253  -1.138  1.00  0.00     0.198 C 
BRANCH  72  73
HETATM   73  O   UNL     1       5.200 -16.883  -0.561  1.00  0.00    -0.398 OA
HETATM   74  H   UNL     1       5.226 -15.913  -0.496  1.00  0.00     0.209 HD
ENDBRANCH  72  73
ENDBRANCH   2  72
BRANCH   3  75
HETATM   75  O   UNL     1       0.507 -20.663  -1.763  1.00  0.00    -0.391 OA
HETATM   76  H   UNL     1      -0.031 -19.914  -2.079  1.00  0.00     0.210 HD
ENDBRANCH   3  75
BRANCH   4  77
HETATM   77  N   UNL     1       2.024 -21.654   0.464  1.00  0.00     0.097 N 
HETATM   78  H   UNL     1       1.444 -22.451   0.206  1.00  0.00     0.316 HD
BRANCH  77  79
HETATM   79  C   UNL     1       2.772 -22.009   1.695  1.00  0.00     0.296 C 
BRANCH  79  80
HETATM   80  C   UNL     1       2.388 -21.239   3.112  1.00  0.00     0.120 C 
BRANCH  80  81
HETATM   81  N   UNL     1       3.457 -20.398   3.656  1.00  0.00    -0.344 N 
HETATM   82  C   UNL     1       3.518 -19.034   3.769  1.00  0.00     0.111 A 
HETATM   83  C   UNL     1       4.780 -18.750   4.243  1.00  0.00     0.135 A 
HETATM   84  N   UNL     1       5.500 -19.900   4.408  1.00  0.00    -0.255 NA
HETATM   85  C   UNL     1       4.699 -20.853   4.025  1.00  0.00     0.209 A 
ENDBRANCH  80  81
BRANCH  80  86
HETATM   86  C   UNL     1       0.928 -20.604   3.110  1.00  0.00     0.053 C 
BRANCH  86  87
HETATM   87  C   UNL     1      -0.460 -21.275   3.621  1.00  0.00     0.094 C 
BRANCH  87  88
HETATM   88  C   UNL     1      -1.095 -20.688   4.964  1.00  0.00     0.051 C 
BRANCH  88  89
HETATM   89  C   UNL     1      -0.605 -21.229   6.405  1.00  0.00     0.094 C 
BRANCH  89  90
HETATM   90  N   UNL     1       0.858 -21.176   6.595  1.00  0.00    -0.345 N 
HETATM   91  C   UNL     1       1.731 -22.219   6.759  1.00  0.00     0.111 A 
HETATM   92  C   UNL     1       2.946 -21.650   7.069  1.00  0.00     0.135 A 
HETATM   93  N   UNL     1       2.836 -20.295   7.130  1.00  0.00    -0.255 NA
HETATM   94  C   UNL     1       1.593 -20.036   6.800  1.00  0.00     0.209 A 
ENDBRANCH  89  90
BRANCH  89  95
HETATM   95  C   UNL     1      -1.083 -22.704   6.727  1.00  0.00     0.051 C 
BRANCH  95  96
HETATM   96  C   UNL     1      -2.475 -23.244   6.173  1.00  0.00     0.094 C 
BRANCH  96  97
HETATM   97  C   UNL     1      -2.421 -24.792   5.853  1.00  0.00     0.051 C 
BRANCH  97  98
HETATM   98  C   UNL     1      -2.711 -25.901   6.910  1.00  0.00     0.089 C 
HETATM   99  C   UNL     1      -1.751 -25.729   8.106  1.00  0.00     0.033 C 
BRANCH  98 100
HETATM  100  N   UNL     1      -4.074 -25.938   7.428  1.00  0.00    -0.334 N 
HETATM  101  C   UNL     1      -4.492 -25.574   8.679  1.00  0.00     0.082 A 
HETATM  102  C   UNL     1      -5.834 -25.882   8.708  1.00  0.00     0.150 A 
HETATM  103  N   UNL     1      -6.237 -26.430   7.518  1.00  0.00    -0.254 NA
HETATM  104  C   UNL     1      -5.162 -26.442   6.764  1.00  0.00     0.210 A 
ENDBRANCH  98 100
ENDBRANCH  97  98
ENDBRANCH  96  97
BRANCH  96 105
HETATM  105  N   UNL     1      -3.719 -22.690   6.678  1.00  0.00    -0.345 N 
HETATM  106  C   UNL     1      -3.977 -22.042   7.852  1.00  0.00     0.209 A 
HETATM  107  N   UNL     1      -5.260 -21.795   8.004  1.00  0.00    -0.255 NA
HETATM  108  C   UNL     1      -5.862 -22.250   6.870  1.00  0.00     0.135 A 
HETATM  109  C   UNL     1      -4.930 -22.810   6.031  1.00  0.00     0.111 A 
ENDBRANCH  96 105
ENDBRANCH  95  96
ENDBRANCH  89  95
ENDBRANCH  88  89
ENDBRANCH  87  88
BRANCH  87 110
HETATM  110  N   UNL     1      -1.367 -21.704   2.547  1.00  0.00    -0.345 N 
HETATM  111  C   UNL     1      -2.575 -22.340   2.676  1.00  0.00     0.111 A 
HETATM  112  C   UNL     1      -3.154 -22.331   1.430  1.00  0.00     0.135 A 
HETATM  113  N   UNL     1      -2.390 -21.624   0.554  1.00  0.00    -0.255 NA
HETATM  114  C   UNL     1      -1.349 -21.233   1.252  1.00  0.00     0.209 A 
ENDBRANCH  87 110
ENDBRANCH  86  87
ENDBRANCH  80  86
ENDBRANCH  79  80
ENDBRANCH  77  79
ENDBRANCH   4  77
BRANCH   5 115
HETATM  115  O   UNL     1       5.283 -21.303  -0.964  1.00  0.00    -0.348 OA
BRANCH 115 116
HETATM  116  C   UNL     1       6.317 -20.862  -1.921  1.00  0.00     0.186 C 
HETATM  117  C   UNL     1       5.824 -19.725  -2.856  1.00  0.00     0.179 C 
HETATM  118  O   UNL     1       6.364 -18.438  -2.505  1.00  0.00    -0.349 OA
HETATM  119  C   UNL     1       7.789 -18.315  -2.557  1.00  0.00     0.296 C 
HETATM  120  C   UNL     1       8.529 -19.556  -1.948  1.00  0.00     0.303 C 
HETATM  121  C   UNL     1       7.572 -20.447  -1.120  1.00  0.00     0.187 C 
BRANCH 117 122
HETATM  122  C   UNL     1       6.129 -20.016  -4.342  1.00  0.00     0.198 C 
BRANCH 122 123
HETATM  123  O   UNL     1       6.805 -21.261  -4.500  1.00  0.00    -0.398 OA
HETATM  124  H   UNL     1       6.150 -21.978  -4.389  1.00  0.00     0.209 HD
ENDBRANCH 122 123
ENDBRANCH 117 122
BRANCH 119 125
HETATM  125  O   UNL     1       8.147 -17.120  -1.843  1.00  0.00    -0.348 OA
BRANCH 125 126
HETATM  126  C   UNL     1       8.684 -16.042  -2.635  1.00  0.00     0.186 C 
HETATM  127  C   UNL     1       8.974 -16.501  -4.088  1.00  0.00     0.176 C 
HETATM  128  O   UNL     1       8.604 -15.505  -5.077  1.00  0.00    -0.379 OA
HETATM  129  C   UNL     1       8.966 -14.171  -4.713  1.00  0.00     0.206 C 
HETATM  130  C   UNL     1       8.168 -13.689  -3.485  1.00  0.00     0.272 C 
HETATM  131  C   UNL     1       7.641 -14.897  -2.669  1.00  0.00     0.184 C 
BRANCH 127 132
HETATM  132  C   UNL     1      10.441 -16.890  -4.323  1.00  0.00     0.198 C 
BRANCH 132 133
HETATM  133  O   UNL     1      11.055 -17.236  -3.081  1.00  0.00    -0.398 OA
HETATM  134  H   UNL     1      11.273 -18.188  -3.136  1.00  0.00     0.209 HD
ENDBRANCH 132 133
ENDBRANCH 127 132
BRANCH 130 135
HETATM  135  N   UNL     1       7.053 -12.785  -3.838  1.00  0.00     0.087 N 
HETATM  136  H   UNL     1       6.193 -13.179  -3.435  1.00  0.00     0.313 HD
HETATM  137  H   UNL     1       6.891 -12.769  -4.844  1.00  0.00     0.313 HD
ENDBRANCH 130 135
BRANCH 131 138
HETATM  138  O   UNL     1       6.393 -15.346  -3.242  1.00  0.00    -0.391 OA
HETATM  139  H   UNL     1       6.442 -15.167  -4.201  1.00  0.00     0.210 HD
ENDBRANCH 131 138
ENDBRANCH 125 126
ENDBRANCH 119 125
BRANCH 120 140
HETATM  140  N   UNL     1       9.745 -19.183  -1.184  1.00  0.00     0.090 N 
HETATM  141  H   UNL     1       9.474 -18.579  -0.407  1.00  0.00     0.313 HD
HETATM  142  H   UNL     1      10.258 -18.534  -1.799  1.00  0.00     0.313 HD
ENDBRANCH 120 140
BRANCH 121 143
HETATM  143  O   UNL     1       7.226 -19.819   0.116  1.00  0.00    -0.391 OA
HETATM  144  H   UNL     1       7.566 -20.400   0.827  1.00  0.00     0.210 HD
ENDBRANCH 121 143
ENDBRANCH 115 116
ENDBRANCH   5 115
TORSDOF 58
ENDMDL
MODEL 7
REMARK VINA RESULT:      -5.9      7.098     17.870
REMARK WARNING: 32 MAX_TORS EXCEEDED!!!
REMARK  58 active torsions:
REMARK  status: ('A' for Active; 'I' for Inactive)
REMARK    1  A    between atoms: C_1  and  O_30 
REMARK    2  A    between atoms: C_2  and  C_6 
REMARK    3  A    between atoms: C_3  and  O_9 
REMARK    4  A    between atoms: C_4  and  N_11 
REMARK    5  A    between atoms: C_5  and  O_12 
REMARK    6  A    between atoms: C_6  and  O_7 
REMARK    7  A    between atoms: N_11  and  C_118 
REMARK    8  A    between atoms: O_12  and  C_20 
REMARK    9  A    between atoms: O_14  and  C_18 
REMARK   10  A    between atoms: C_16  and  C_23 
REMARK   11  A    between atoms: O_17  and  C_23 
REMARK   12  A    between atoms: O_19  and  C_22 
REMARK   13  A    between atoms: O_19  and  C_42 
REMARK   14  A    between atoms: N_21  and  C_24 
REMARK   15  A    between atoms: O_26  and  C_29 
REMARK   16  A    between atoms: C_28  and  C_34 
REMARK   17  A    between atoms: O_30  and  C_33 
REMARK   18  A    between atoms: C_31  and  O_53 
REMARK   19  A    between atoms: N_32  and  C_35 
REMARK   20  A    between atoms: C_34  and  O_65 
REMARK   21  A    between atoms: O_37  and  C_41 
REMARK   22  A    between atoms: C_39  and  C_45 
REMARK   23  A    between atoms: O_40  and  C_45 
REMARK   24  A    between atoms: N_43  and  C_46 
REMARK   25  A    between atoms: O_48  and  C_52 
REMARK   26  A    between atoms: C_50  and  C_57 
REMARK   27  A    between atoms: O_51  and  C_57 
REMARK   28  A    between atoms: O_53  and  C_56 
REMARK   29  A    between atoms: N_55  and  C_58 
REMARK   30  A    between atoms: N_55  and  C_71 
REMARK   31  A    between atoms: C_71  and  C_73 
REMARK   32  A    between atoms: C_73  and  C_74 
REMARK   33  A    between atoms: C_73  and  N_87 
REMARK   34  A    between atoms: C_74  and  C_75 
REMARK   35  A    between atoms: C_75  and  C_76 
REMARK   36  A    between atoms: C_75  and  N_101 
REMARK   37  A    between atoms: C_76  and  C_77 
REMARK   38  A    between atoms: C_77  and  C_78 
REMARK   39  A    between atoms: C_77  and  N_91 
REMARK   40  A    between atoms: C_78  and  C_79 
REMARK   41  A    between atoms: C_79  and  C_80 
REMARK   42  A    between atoms: C_79  and  N_106 
REMARK   43  A    between atoms: C_80  and  C_81 
REMARK   44  A    between atoms: C_81  and  N_96 
REMARK   45  A    between atoms: N_113  and  C_119 
REMARK   46  A    between atoms: C_118  and  C_119 
REMARK   47  A    between atoms: C_119  and  C_126 
REMARK   48  A    between atoms: N_122  and  C_128 
REMARK   49  A    between atoms: C_124  and  C_128 
REMARK   50  A    between atoms: C_124  and  C_130 
REMARK   51  A    between atoms: N_125  and  C_135 
REMARK   52  A    between atoms: C_126  and  C_130 
REMARK   53  A    between atoms: C_128  and  C_132 
REMARK   54  A    between atoms: N_129  and  C_130 
REMARK   55  A    between atoms: C_132  and  C_137 
REMARK   56  A    between atoms: C_135  and  C_136 
REMARK   57  A    between atoms: C_136  and  C_137 
REMARK   58  A    between atoms: C_137  and  N_140 
ROOT
HETATM    1  C   UNL     1       2.683 -19.081   0.951  1.00  0.00     0.186 C 
HETATM    2  C   UNL     1       1.320 -19.855   0.774  1.00  0.00     0.179 C 
HETATM    3  C   UNL     1       3.164 -18.923   2.430  1.00  0.00     0.188 C 
HETATM    4  C   UNL     1       2.675 -20.056   3.392  1.00  0.00     0.306 C 
HETATM    5  C   UNL     1       1.124 -19.938   3.154  1.00  0.00     0.296 C 
HETATM    6  O   UNL     1       0.821 -20.583   1.933  1.00  0.00    -0.349 OA
ENDROOT
BRANCH   1   7
HETATM    7  O   UNL     1       3.700 -19.695   0.134  1.00  0.00    -0.348 OA
BRANCH   7   8
HETATM    8  C   UNL     1       4.455 -18.776  -0.688  1.00  0.00     0.296 C 
HETATM    9  O   UNL     1       4.003 -17.453  -0.369  1.00  0.00    -0.349 OA
HETATM   10  C   UNL     1       4.538 -16.382  -1.179  1.00  0.00     0.179 C 
HETATM   11  C   UNL     1       4.461 -16.678  -2.693  1.00  0.00     0.186 C 
HETATM   12  C   UNL     1       3.617 -17.932  -2.950  1.00  0.00     0.187 C 
HETATM   13  C   UNL     1       4.242 -19.118  -2.204  1.00  0.00     0.303 C 
BRANCH  10  14
HETATM   14  C   UNL     1       5.973 -16.025  -0.743  1.00  0.00     0.198 C 
BRANCH  14  15
HETATM   15  O   UNL     1       6.173 -14.614  -0.680  1.00  0.00    -0.398 OA
HETATM   16  H   UNL     1       7.080 -14.458  -0.359  1.00  0.00     0.209 HD
ENDBRANCH  14  15
ENDBRANCH  10  14
BRANCH  11  17
HETATM   17  O   UNL     1       3.849 -15.616  -3.431  1.00  0.00    -0.348 OA
BRANCH  17  18
HETATM   18  C   UNL     1       4.737 -14.822  -4.205  1.00  0.00     0.296 C 
HETATM   19  O   UNL     1       6.074 -15.247  -3.958  1.00  0.00    -0.351 OA
HETATM   20  C   UNL     1       7.084 -14.225  -3.931  1.00  0.00     0.150 C 
HETATM   21  C   UNL     1       6.809 -13.142  -4.970  1.00  0.00     0.068 C 
HETATM   22  C   UNL     1       5.422 -12.511  -4.803  1.00  0.00     0.158 C 
HETATM   23  C   UNL     1       4.450 -13.323  -3.905  1.00  0.00     0.303 C 
BRANCH  20  24
HETATM   24  C   UNL     1       8.452 -14.887  -4.164  1.00  0.00     0.196 C 
BRANCH  24  25
HETATM   25  O   UNL     1       9.495 -13.965  -3.847  1.00  0.00    -0.398 OA
HETATM   26  H   UNL     1      10.194 -14.076  -4.514  1.00  0.00     0.209 HD
ENDBRANCH  24  25
ENDBRANCH  20  24
BRANCH  22  27
HETATM   27  O   UNL     1       5.563 -11.179  -4.299  1.00  0.00    -0.393 OA
HETATM   28  H   UNL     1       5.715 -11.283  -3.337  1.00  0.00     0.210 HD
ENDBRANCH  22  27
BRANCH  23  29
HETATM   29  N   UNL     1       4.622 -12.872  -2.494  1.00  0.00     0.097 N 
HETATM   30  H   UNL     1       4.827 -13.717  -1.948  1.00  0.00     0.316 HD
BRANCH  29  31
HETATM   31  C   UNL     1       3.449 -12.285  -1.826  1.00  0.00     0.296 C 
BRANCH  31  32
HETATM   32  C   UNL     1       3.717 -11.113  -0.786  1.00  0.00     0.120 C 
BRANCH  32  33
HETATM   33  C   UNL     1       2.387 -10.776  -0.014  1.00  0.00     0.053 C 
BRANCH  33  34
HETATM   34  C   UNL     1       0.974 -10.814  -0.748  1.00  0.00     0.094 C 
BRANCH  34  35
HETATM   35  C   UNL     1      -0.087 -11.609   0.115  1.00  0.00     0.051 C 
BRANCH  35  36
HETATM   36  C   UNL     1      -1.206 -12.521  -0.526  1.00  0.00     0.094 C 
BRANCH  36  37
HETATM   37  C   UNL     1      -1.996 -11.786  -1.667  1.00  0.00     0.051 C 
BRANCH  37  38
HETATM   38  C   UNL     1      -3.244 -10.899  -1.297  1.00  0.00     0.094 C 
BRANCH  38  39
HETATM   39  C   UNL     1      -3.192  -9.497  -2.009  1.00  0.00     0.051 C 
BRANCH  39  40
HETATM   40  C   UNL     1      -3.620  -8.178  -1.309  1.00  0.00     0.089 C 
HETATM   41  C   UNL     1      -4.966  -7.709  -1.896  1.00  0.00     0.033 C 
BRANCH  40  42
HETATM   42  N   UNL     1      -3.749  -8.242   0.141  1.00  0.00    -0.334 N 
HETATM   43  C   UNL     1      -2.764  -8.645   1.005  1.00  0.00     0.210 A 
HETATM   44  N   UNL     1      -3.146  -8.535   2.258  1.00  0.00    -0.254 NA
HETATM   45  C   UNL     1      -4.423  -8.040   2.200  1.00  0.00     0.150 A 
HETATM   46  C   UNL     1      -4.820  -7.850   0.895  1.00  0.00     0.082 A 
ENDBRANCH  40  42
ENDBRANCH  39  40
ENDBRANCH  38  39
BRANCH  38  47
HETATM   47  N   UNL     1      -4.532 -11.544  -1.119  1.00  0.00    -0.345 N 
HETATM   48  C   UNL     1      -5.054 -12.639  -1.741  1.00  0.00     0.209 A 
HETATM   49  N   UNL     1      -6.293 -12.872  -1.363  1.00  0.00    -0.255 NA
HETATM   50  C   UNL     1      -6.573 -11.935  -0.414  1.00  0.00     0.135 A 
HETATM   51  C   UNL     1      -5.498 -11.097  -0.244  1.00  0.00     0.111 A 
ENDBRANCH  38  47
ENDBRANCH  37  38
ENDBRANCH  36  37
BRANCH  36  52
HETATM   52  N   UNL     1      -0.652 -13.767  -1.080  1.00  0.00    -0.345 N 
HETATM   53  C   UNL     1       0.526 -14.357  -0.712  1.00  0.00     0.209 A 
HETATM   54  N   UNL     1       0.716 -15.502  -1.328  1.00  0.00    -0.255 NA
HETATM   55  C   UNL     1      -0.368 -15.662  -2.138  1.00  0.00     0.135 A 
HETATM   56  C   UNL     1      -1.257 -14.630  -1.957  1.00  0.00     0.111 A 
ENDBRANCH  36  52
ENDBRANCH  35  36
ENDBRANCH  34  35
BRANCH  34  57
HETATM   57  N   UNL     1       0.611  -9.573  -1.432  1.00  0.00    -0.345 N 
HETATM   58  C   UNL     1       0.595  -9.384  -2.792  1.00  0.00     0.209 A 
HETATM   59  N   UNL     1       0.468  -8.121  -3.125  1.00  0.00    -0.255 NA
HETATM   60  C   UNL     1       0.451  -7.442  -1.946  1.00  0.00     0.135 A 
HETATM   61  C   UNL     1       0.599  -8.310  -0.892  1.00  0.00     0.111 A 
ENDBRANCH  34  57
ENDBRANCH  33  34
ENDBRANCH  32  33
BRANCH  32  62
HETATM   62  N   UNL     1       4.478  -9.960  -1.282  1.00  0.00    -0.344 N 
HETATM   63  C   UNL     1       4.152  -9.014  -2.218  1.00  0.00     0.111 A 
HETATM   64  C   UNL     1       5.228  -8.165  -2.309  1.00  0.00     0.135 A 
HETATM   65  N   UNL     1       6.230  -8.582  -1.493  1.00  0.00    -0.255 NA
HETATM   66  C   UNL     1       5.766  -9.660  -0.906  1.00  0.00     0.209 A 
ENDBRANCH  32  62
ENDBRANCH  31  32
ENDBRANCH  29  31
ENDBRANCH  23  29
ENDBRANCH  17  18
ENDBRANCH  11  17
BRANCH  12  67
HETATM   67  O   UNL     1       2.247 -17.748  -2.551  1.00  0.00    -0.391 OA
HETATM   68  H   UNL     1       2.252 -17.258  -1.706  1.00  0.00     0.210 HD
ENDBRANCH  12  67
BRANCH  13  69
HETATM   69  N   UNL     1       3.439 -20.327  -2.480  1.00  0.00     0.090 N 
HETATM   70  H   UNL     1       4.089 -21.026  -2.855  1.00  0.00     0.313 HD
HETATM   71  H   UNL     1       2.852 -20.086  -3.288  1.00  0.00     0.313 HD
ENDBRANCH  13  69
ENDBRANCH   7   8
ENDBRANCH   1   7
BRANCH   2  72
HETATM   72  C   UNL     1       0.232 -18.867   0.271  1.00  0.00     0.198 C 
BRANCH  72  73
HETATM   73  O   UNL     1       0.454 -17.554   0.772  1.00  0.00    -0.398 OA
HETATM   74  H   UNL     1       1.058 -17.619   1.532  1.00  0.00     0.209 HD
ENDBRANCH  72  73
ENDBRANCH   2  72
BRANCH   3  75
HETATM   75  O   UNL     1       4.558 -18.642   2.539  1.00  0.00    -0.391 OA
HETATM   76  H   UNL     1       5.022 -19.186   1.877  1.00  0.00     0.210 HD
ENDBRANCH   3  75
BRANCH   4  77
HETATM   77  N   UNL     1       3.589 -21.259   3.217  1.00  0.00     0.097 N 
HETATM   78  H   UNL     1       4.367 -20.967   2.628  1.00  0.00     0.316 HD
BRANCH  77  79
HETATM   79  C   UNL     1       4.145 -21.972   4.393  1.00  0.00     0.296 C 
BRANCH  79  80
HETATM   80  C   UNL     1       4.461 -21.110   5.774  1.00  0.00     0.120 C 
BRANCH  80  81
HETATM   81  N   UNL     1       3.362 -21.089   6.742  1.00  0.00    -0.344 N 
HETATM   82  C   UNL     1       3.023 -22.016   7.692  1.00  0.00     0.111 A 
HETATM   83  C   UNL     1       1.849 -21.567   8.257  1.00  0.00     0.135 A 
HETATM   84  N   UNL     1       1.450 -20.400   7.668  1.00  0.00    -0.255 NA
HETATM   85  C   UNL     1       2.350 -20.160   6.758  1.00  0.00     0.209 A 
ENDBRANCH  80  81
BRANCH  80  86
HETATM   86  C   UNL     1       5.913 -21.377   6.367  1.00  0.00     0.053 C 
BRANCH  86  87
HETATM   87  C   UNL     1       6.490 -20.975   7.831  1.00  0.00     0.094 C 
BRANCH  87  88
HETATM   88  C   UNL     1       6.308 -22.049   8.999  1.00  0.00     0.051 C 
BRANCH  88  89
HETATM   89  C   UNL     1       7.131 -23.438   8.970  1.00  0.00     0.094 C 
BRANCH  89  90
HETATM   90  N   UNL     1       6.273 -24.639   9.007  1.00  0.00    -0.345 N 
HETATM   91  C   UNL     1       6.637 -25.935   9.256  1.00  0.00     0.111 A 
HETATM   92  C   UNL     1       5.518 -26.697   9.007  1.00  0.00     0.135 A 
HETATM   93  N   UNL     1       4.491 -25.912   8.583  1.00  0.00    -0.255 NA
HETATM   94  C   UNL     1       4.954 -24.685   8.634  1.00  0.00     0.209 A 
ENDBRANCH  89  90
BRANCH  89  95
HETATM   95  C   UNL     1       8.198 -23.569  10.133  1.00  0.00     0.051 C 
BRANCH  95  96
HETATM   96  C   UNL     1       8.985 -22.289  10.661  1.00  0.00     0.094 C 
BRANCH  96  97
HETATM   97  C   UNL     1       9.031 -22.235  12.240  1.00  0.00     0.051 C 
BRANCH  97  98
HETATM   98  C   UNL     1      10.020 -23.078  13.103  1.00  0.00     0.089 C 
HETATM   99  C   UNL     1      10.432 -24.341  12.318  1.00  0.00     0.033 C 
BRANCH  98 100
HETATM  100  N   UNL     1      11.236 -22.390  13.520  1.00  0.00    -0.334 N 
HETATM  101  C   UNL     1      11.479 -21.044  13.479  1.00  0.00     0.082 A 
HETATM  102  C   UNL     1      12.788 -20.907  13.882  1.00  0.00     0.150 A 
HETATM  103  N   UNL     1      13.347 -22.128  14.154  1.00  0.00    -0.254 NA
HETATM  104  C   UNL     1      12.390 -23.000  13.939  1.00  0.00     0.210 A 
ENDBRANCH  98 100
ENDBRANCH  97  98
ENDBRANCH  96  97
BRANCH  96 105
HETATM  105  N   UNL     1      10.131 -21.789   9.923  1.00  0.00    -0.345 N 
HETATM  106  C   UNL     1      10.772 -22.315   8.838  1.00  0.00     0.209 A 
HETATM  107  N   UNL     1      11.851 -21.630   8.525  1.00  0.00    -0.255 NA
HETATM  108  C   UNL     1      11.894 -20.588   9.402  1.00  0.00     0.135 A 
HETATM  109  C   UNL     1      10.841 -20.662  10.280  1.00  0.00     0.111 A 
ENDBRANCH  96 105
ENDBRANCH  95  96
ENDBRANCH  89  95
ENDBRANCH  88  89
ENDBRANCH  87  88
BRANCH  87 110
HETATM  110  N   UNL     1       7.717 -20.166   7.808  1.00  0.00    -0.345 N 
HETATM  111  C   UNL     1       8.638 -20.070   6.798  1.00  0.00     0.111 A 
HETATM  112  C   UNL     1       9.477 -19.035   7.132  1.00  0.00     0.135 A 
HETATM  113  N   UNL     1       9.048 -18.421   8.268  1.00  0.00    -0.255 NA
HETATM  114  C   UNL     1       7.980 -19.092   8.632  1.00  0.00     0.209 A 
ENDBRANCH  87 110
ENDBRANCH  86  87
ENDBRANCH  80  86
ENDBRANCH  79  80
ENDBRANCH  77  79
ENDBRANCH   4  77
BRANCH   5 115
HETATM  115  O   UNL     1       0.311 -20.309   4.286  1.00  0.00    -0.348 OA
BRANCH 115 116
HETATM  116  C   UNL     1      -0.267 -21.663   4.180  1.00  0.00     0.186 C 
HETATM  117  C   UNL     1       0.724 -22.774   4.622  1.00  0.00     0.179 C 
HETATM  118  O   UNL     1       0.407 -23.324   5.914  1.00  0.00    -0.349 OA
HETATM  119  C   UNL     1      -0.872 -23.952   6.038  1.00  0.00     0.296 C 
HETATM  120  C   UNL     1      -2.019 -23.139   5.342  1.00  0.00     0.303 C 
HETATM  121  C   UNL     1      -1.575 -21.696   5.001  1.00  0.00     0.187 C 
BRANCH 117 122
HETATM  122  C   UNL     1       0.814 -23.921   3.591  1.00  0.00     0.198 C 
BRANCH 122 123
HETATM  123  O   UNL     1       1.479 -23.500   2.403  1.00  0.00    -0.398 OA
HETATM  124  H   UNL     1       0.803 -23.343   1.715  1.00  0.00     0.209 HD
ENDBRANCH 122 123
ENDBRANCH 117 122
BRANCH 119 125
HETATM  125  O   UNL     1      -1.148 -24.102   7.441  1.00  0.00    -0.348 OA
BRANCH 125 126
HETATM  126  C   UNL     1      -0.982 -25.428   7.984  1.00  0.00     0.186 C 
HETATM  127  C   UNL     1      -0.980 -26.499   6.863  1.00  0.00     0.176 C 
HETATM  128  O   UNL     1       0.010 -27.539   7.079  1.00  0.00    -0.379 OA
HETATM  129  C   UNL     1       0.084 -27.988   8.434  1.00  0.00     0.206 C 
HETATM  130  C   UNL     1       0.604 -26.876   9.366  1.00  0.00     0.272 C 
HETATM  131  C   UNL     1       0.374 -25.480   8.731  1.00  0.00     0.184 C 
BRANCH 127 132
HETATM  132  C   UNL     1      -2.346 -27.171   6.660  1.00  0.00     0.198 C 
BRANCH 132 133
HETATM  133  O   UNL     1      -3.173 -26.349   5.835  1.00  0.00    -0.398 OA
HETATM  134  H   UNL     1      -2.724 -26.286   4.969  1.00  0.00     0.209 HD
ENDBRANCH 132 133
ENDBRANCH 127 132
BRANCH 130 135
HETATM  135  N   UNL     1       2.027 -27.043   9.730  1.00  0.00     0.087 N 
HETATM  136  H   UNL     1       2.263 -28.036   9.616  1.00  0.00     0.313 HD
HETATM  137  H   UNL     1       2.183 -26.845  10.718  1.00  0.00     0.313 HD
ENDBRANCH 130 135
BRANCH 131 138
HETATM  138  O   UNL     1       1.472 -25.179   7.842  1.00  0.00    -0.391 OA
HETATM  139  H   UNL     1       1.538 -24.206   7.794  1.00  0.00     0.210 HD
ENDBRANCH 131 138
ENDBRANCH 125 126
ENDBRANCH 119 125
BRANCH 120 140
HETATM  140  N   UNL     1      -3.289 -23.167   6.106  1.00  0.00     0.090 N 
HETATM  141  H   UNL     1      -3.248 -23.926   6.788  1.00  0.00     0.313 HD
HETATM  142  H   UNL     1      -3.996 -23.511   5.438  1.00  0.00     0.313 HD
ENDBRANCH 120 140
BRANCH 121 143
HETATM  143  O   UNL     1      -1.479 -20.897   6.182  1.00  0.00    -0.391 OA
HETATM  144  H   UNL     1      -0.548 -20.599   6.241  1.00  0.00     0.210 HD
ENDBRANCH 121 143
ENDBRANCH 115 116
ENDBRANCH   5 115
TORSDOF 58
ENDMDL
MODEL 8
REMARK VINA RESULT:      -5.9      7.195     16.998
REMARK WARNING: 32 MAX_TORS EXCEEDED!!!
REMARK  58 active torsions:
REMARK  status: ('A' for Active; 'I' for Inactive)
REMARK    1  A    between atoms: C_1  and  O_30 
REMARK    2  A    between atoms: C_2  and  C_6 
REMARK    3  A    between atoms: C_3  and  O_9 
REMARK    4  A    between atoms: C_4  and  N_11 
REMARK    5  A    between atoms: C_5  and  O_12 
REMARK    6  A    between atoms: C_6  and  O_7 
REMARK    7  A    between atoms: N_11  and  C_118 
REMARK    8  A    between atoms: O_12  and  C_20 
REMARK    9  A    between atoms: O_14  and  C_18 
REMARK   10  A    between atoms: C_16  and  C_23 
REMARK   11  A    between atoms: O_17  and  C_23 
REMARK   12  A    between atoms: O_19  and  C_22 
REMARK   13  A    between atoms: O_19  and  C_42 
REMARK   14  A    between atoms: N_21  and  C_24 
REMARK   15  A    between atoms: O_26  and  C_29 
REMARK   16  A    between atoms: C_28  and  C_34 
REMARK   17  A    between atoms: O_30  and  C_33 
REMARK   18  A    between atoms: C_31  and  O_53 
REMARK   19  A    between atoms: N_32  and  C_35 
REMARK   20  A    between atoms: C_34  and  O_65 
REMARK   21  A    between atoms: O_37  and  C_41 
REMARK   22  A    between atoms: C_39  and  C_45 
REMARK   23  A    between atoms: O_40  and  C_45 
REMARK   24  A    between atoms: N_43  and  C_46 
REMARK   25  A    between atoms: O_48  and  C_52 
REMARK   26  A    between atoms: C_50  and  C_57 
REMARK   27  A    between atoms: O_51  and  C_57 
REMARK   28  A    between atoms: O_53  and  C_56 
REMARK   29  A    between atoms: N_55  and  C_58 
REMARK   30  A    between atoms: N_55  and  C_71 
REMARK   31  A    between atoms: C_71  and  C_73 
REMARK   32  A    between atoms: C_73  and  C_74 
REMARK   33  A    between atoms: C_73  and  N_87 
REMARK   34  A    between atoms: C_74  and  C_75 
REMARK   35  A    between atoms: C_75  and  C_76 
REMARK   36  A    between atoms: C_75  and  N_101 
REMARK   37  A    between atoms: C_76  and  C_77 
REMARK   38  A    between atoms: C_77  and  C_78 
REMARK   39  A    between atoms: C_77  and  N_91 
REMARK   40  A    between atoms: C_78  and  C_79 
REMARK   41  A    between atoms: C_79  and  C_80 
REMARK   42  A    between atoms: C_79  and  N_106 
REMARK   43  A    between atoms: C_80  and  C_81 
REMARK   44  A    between atoms: C_81  and  N_96 
REMARK   45  A    between atoms: N_113  and  C_119 
REMARK   46  A    between atoms: C_118  and  C_119 
REMARK   47  A    between atoms: C_119  and  C_126 
REMARK   48  A    between atoms: N_122  and  C_128 
REMARK   49  A    between atoms: C_124  and  C_128 
REMARK   50  A    between atoms: C_124  and  C_130 
REMARK   51  A    between atoms: N_125  and  C_135 
REMARK   52  A    between atoms: C_126  and  C_130 
REMARK   53  A    between atoms: C_128  and  C_132 
REMARK   54  A    between atoms: N_129  and  C_130 
REMARK   55  A    between atoms: C_132  and  C_137 
REMARK   56  A    between atoms: C_135  and  C_136 
REMARK   57  A    between atoms: C_136  and  C_137 
REMARK   58  A    between atoms: C_137  and  N_140 
ROOT
HETATM    1  C   UNL     1       3.671 -19.236  -0.189  1.00  0.00     0.186 C 
HETATM    2  C   UNL     1       3.168 -20.449  -1.064  1.00  0.00     0.179 C 
HETATM    3  C   UNL     1       3.220 -19.270   1.307  1.00  0.00     0.188 C 
HETATM    4  C   UNL     1       2.971 -20.708   1.874  1.00  0.00     0.306 C 
HETATM    5  C   UNL     1       1.916 -21.214   0.822  1.00  0.00     0.296 C 
HETATM    6  O   UNL     1       2.614 -21.591  -0.349  1.00  0.00    -0.349 OA
ENDROOT
BRANCH   1   7
HETATM    7  O   UNL     1       5.104 -19.118  -0.300  1.00  0.00    -0.348 OA
BRANCH   7   8
HETATM    8  C   UNL     1       5.566 -17.895  -0.916  1.00  0.00     0.296 C 
HETATM    9  O   UNL     1       4.405 -17.167  -1.337  1.00  0.00    -0.349 OA
HETATM   10  C   UNL     1       4.647 -15.964  -2.103  1.00  0.00     0.179 C 
HETATM   11  C   UNL     1       5.653 -16.178  -3.254  1.00  0.00     0.186 C 
HETATM   12  C   UNL     1       5.953 -17.671  -3.432  1.00  0.00     0.187 C 
HETATM   13  C   UNL     1       6.516 -18.229  -2.120  1.00  0.00     0.303 C 
BRANCH  10  14
HETATM   14  C   UNL     1       5.074 -14.803  -1.184  1.00  0.00     0.198 C 
BRANCH  14  15
HETATM   15  O   UNL     1       6.433 -14.427  -1.401  1.00  0.00    -0.398 OA
HETATM   16  H   UNL     1       6.923 -15.228  -1.664  1.00  0.00     0.209 HD
ENDBRANCH  14  15
ENDBRANCH  10  14
BRANCH  11  17
HETATM   17  O   UNL     1       5.159 -15.708  -4.511  1.00  0.00    -0.348 OA
BRANCH  17  18
HETATM   18  C   UNL     1       5.974 -14.745  -5.165  1.00  0.00     0.296 C 
HETATM   19  O   UNL     1       7.153 -14.535  -4.393  1.00  0.00    -0.351 OA
HETATM   20  C   UNL     1       7.670 -13.195  -4.355  1.00  0.00     0.150 C 
HETATM   21  C   UNL     1       7.507 -12.495  -5.701  1.00  0.00     0.068 C 
HETATM   22  C   UNL     1       6.050 -12.479  -6.177  1.00  0.00     0.158 C 
HETATM   23  C   UNL     1       5.119 -13.473  -5.434  1.00  0.00     0.303 C 
BRANCH  20  24
HETATM   24  C   UNL     1       9.148 -13.257  -3.934  1.00  0.00     0.196 C 
BRANCH  24  25
HETATM   25  O   UNL     1       9.779 -14.379  -4.550  1.00  0.00    -0.398 OA
HETATM   26  H   UNL     1      10.740 -14.241  -4.494  1.00  0.00     0.209 HD
ENDBRANCH  24  25
ENDBRANCH  20  24
BRANCH  22  27
HETATM   27  O   UNL     1       5.532 -11.148  -6.077  1.00  0.00    -0.393 OA
HETATM   28  H   UNL     1       5.674 -10.888  -5.144  1.00  0.00     0.210 HD
ENDBRANCH  22  27
BRANCH  23  29
HETATM   29  N   UNL     1       4.545 -12.783  -4.244  1.00  0.00     0.097 N 
HETATM   30  H   UNL     1       4.769 -13.374  -3.435  1.00  0.00     0.316 HD
BRANCH  29  31
HETATM   31  C   UNL     1       3.080 -12.639  -4.190  1.00  0.00     0.296 C 
BRANCH  31  32
HETATM   32  C   UNL     1       2.429 -12.369  -2.765  1.00  0.00     0.120 C 
BRANCH  32  33
HETATM   33  C   UNL     1       0.861 -12.336  -2.897  1.00  0.00     0.053 C 
BRANCH  33  34
HETATM   34  C   UNL     1      -0.074 -13.059  -1.828  1.00  0.00     0.094 C 
BRANCH  34  35
HETATM   35  C   UNL     1       0.420 -14.536  -1.557  1.00  0.00     0.051 C 
BRANCH  35  36
HETATM   36  C   UNL     1      -0.565 -15.767  -1.464  1.00  0.00     0.094 C 
BRANCH  36  37
HETATM   37  C   UNL     1      -0.318 -16.820  -2.603  1.00  0.00     0.051 C 
BRANCH  37  38
HETATM   38  C   UNL     1      -1.010 -16.622  -4.004  1.00  0.00     0.094 C 
BRANCH  38  39
HETATM   39  C   UNL     1      -2.460 -16.029  -3.857  1.00  0.00     0.051 C 
BRANCH  39  40
HETATM   40  C   UNL     1      -2.761 -14.507  -3.927  1.00  0.00     0.089 C 
HETATM   41  C   UNL     1      -3.092 -14.125  -5.383  1.00  0.00     0.033 C 
BRANCH  40  42
HETATM   42  N   UNL     1      -3.841 -14.034  -3.072  1.00  0.00    -0.334 N 
HETATM   43  C   UNL     1      -3.742 -13.812  -1.722  1.00  0.00     0.210 A 
HETATM   44  N   UNL     1      -4.857 -13.323  -1.230  1.00  0.00    -0.254 NA
HETATM   45  C   UNL     1      -5.707 -13.223  -2.301  1.00  0.00     0.150 A 
HETATM   46  C   UNL     1      -5.098 -13.658  -3.457  1.00  0.00     0.082 A 
ENDBRANCH  40  42
ENDBRANCH  39  40
ENDBRANCH  38  39
BRANCH  38  47
HETATM   47  N   UNL     1      -0.198 -16.208  -5.133  1.00  0.00    -0.345 N 
HETATM   48  C   UNL     1      -0.411 -16.370  -6.469  1.00  0.00     0.209 A 
HETATM   49  N   UNL     1       0.600 -15.925  -7.183  1.00  0.00    -0.255 NA
HETATM   50  C   UNL     1       1.481 -15.393  -6.288  1.00  0.00     0.135 A 
HETATM   51  C   UNL     1       1.011 -15.557  -5.008  1.00  0.00     0.111 A 
ENDBRANCH  38  47
ENDBRANCH  37  38
ENDBRANCH  36  37
BRANCH  36  52
HETATM   52  N   UNL     1      -0.464 -16.459  -0.169  1.00  0.00    -0.345 N 
HETATM   53  C   UNL     1      -0.930 -15.993   1.030  1.00  0.00     0.209 A 
HETATM   54  N   UNL     1      -0.763 -16.867   1.997  1.00  0.00    -0.255 NA
HETATM   55  C   UNL     1      -0.152 -17.938   1.414  1.00  0.00     0.135 A 
HETATM   56  C   UNL     1      -0.012 -17.732   0.063  1.00  0.00     0.111 A 
ENDBRANCH  36  52
ENDBRANCH  35  36
ENDBRANCH  34  35
BRANCH  34  57
HETATM   57  N   UNL     1      -0.518 -12.199  -0.732  1.00  0.00    -0.345 N 
HETATM   58  C   UNL     1      -0.384 -12.476   0.606  1.00  0.00     0.209 A 
HETATM   59  N   UNL     1      -1.077 -11.656   1.363  1.00  0.00    -0.255 NA
HETATM   60  C   UNL     1      -1.735 -10.840   0.495  1.00  0.00     0.135 A 
HETATM   61  C   UNL     1      -1.453 -11.194  -0.801  1.00  0.00     0.111 A 
ENDBRANCH  34  57
ENDBRANCH  33  34
ENDBRANCH  32  33
BRANCH  32  62
HETATM   62  N   UNL     1       3.026 -11.291  -1.968  1.00  0.00    -0.344 N 
HETATM   63  C   UNL     1       3.895 -11.342  -0.910  1.00  0.00     0.111 A 
HETATM   64  C   UNL     1       4.128 -10.043  -0.529  1.00  0.00     0.135 A 
HETATM   65  N   UNL     1       3.394  -9.189  -1.289  1.00  0.00    -0.255 NA
HETATM   66  C   UNL     1       2.735  -9.956  -2.126  1.00  0.00     0.209 A 
ENDBRANCH  32  62
ENDBRANCH  31  32
ENDBRANCH  29  31
ENDBRANCH  23  29
ENDBRANCH  17  18
ENDBRANCH  11  17
BRANCH  12  67
HETATM   67  O   UNL     1       4.786 -18.408  -3.837  1.00  0.00    -0.391 OA
HETATM   68  H   UNL     1       4.047 -17.772  -3.903  1.00  0.00     0.210 HD
ENDBRANCH  12  67
BRANCH  13  69
HETATM   69  N   UNL     1       6.828 -19.661  -2.308  1.00  0.00     0.090 N 
HETATM   70  H   UNL     1       6.134 -20.182  -1.762  1.00  0.00     0.313 HD
HETATM   71  H   UNL     1       7.705 -19.818  -1.795  1.00  0.00     0.313 HD
ENDBRANCH  13  69
ENDBRANCH   7   8
ENDBRANCH   1   7
BRANCH   2  72
HETATM   72  C   UNL     1       2.136 -19.935  -2.105  1.00  0.00     0.198 C 
BRANCH  72  73
HETATM   73  O   UNL     1       2.424 -18.600  -2.505  1.00  0.00    -0.398 OA
HETATM   74  H   UNL     1       2.526 -18.591  -3.472  1.00  0.00     0.209 HD
ENDBRANCH  72  73
ENDBRANCH   2  72
BRANCH   3  75
HETATM   75  O   UNL     1       4.025 -18.452   2.154  1.00  0.00    -0.391 OA
HETATM   76  H   UNL     1       3.500 -18.240   2.947  1.00  0.00     0.210 HD
ENDBRANCH   3  75
BRANCH   4  77
HETATM   77  N   UNL     1       4.315 -21.308   2.258  1.00  0.00     0.097 N 
HETATM   78  H   UNL     1       5.038 -20.662   1.945  1.00  0.00     0.316 HD
BRANCH  77  79
HETATM   79  C   UNL     1       4.609 -21.682   3.663  1.00  0.00     0.296 C 
BRANCH  79  80
HETATM   80  C   UNL     1       4.538 -20.509   4.833  1.00  0.00     0.120 C 
BRANCH  80  81
HETATM   81  N   UNL     1       3.379 -20.607   5.723  1.00  0.00    -0.344 N 
HETATM   82  C   UNL     1       2.716 -19.617   6.399  1.00  0.00     0.111 A 
HETATM   83  C   UNL     1       1.774 -20.255   7.177  1.00  0.00     0.135 A 
HETATM   84  N   UNL     1       1.853 -21.609   7.009  1.00  0.00    -0.255 NA
HETATM   85  C   UNL     1       2.830 -21.786   6.166  1.00  0.00     0.209 A 
ENDBRANCH  80  81
BRANCH  80  86
HETATM   86  C   UNL     1       5.939 -20.232   5.535  1.00  0.00     0.053 C 
BRANCH  86  87
HETATM   87  C   UNL     1       6.276 -20.186   7.124  1.00  0.00     0.094 C 
BRANCH  87  88
HETATM   88  C   UNL     1       5.535 -21.255   8.050  1.00  0.00     0.051 C 
BRANCH  88  89
HETATM   89  C   UNL     1       6.144 -22.739   8.238  1.00  0.00     0.094 C 
BRANCH  89  90
HETATM   90  N   UNL     1       5.184 -23.819   7.931  1.00  0.00    -0.345 N 
HETATM   91  C   UNL     1       5.130 -24.616   6.819  1.00  0.00     0.111 A 
HETATM   92  C   UNL     1       3.964 -25.340   6.929  1.00  0.00     0.135 A 
HETATM   93  N   UNL     1       3.289 -24.988   8.057  1.00  0.00    -0.255 NA
HETATM   94  C   UNL     1       4.058 -24.112   8.658  1.00  0.00     0.209 A 
ENDBRANCH  89  90
BRANCH  89  95
HETATM   95  C   UNL     1       6.730 -23.008   9.684  1.00  0.00     0.051 C 
BRANCH  95  96
HETATM   96  C   UNL     1       8.091 -22.324  10.147  1.00  0.00     0.094 C 
BRANCH  96  97
HETATM   97  C   UNL     1       7.935 -21.580  11.533  1.00  0.00     0.051 C 
BRANCH  97  98
HETATM   98  C   UNL     1       8.791 -20.344  11.950  1.00  0.00     0.089 C 
HETATM   99  C   UNL     1       8.287 -19.808  13.306  1.00  0.00     0.033 C 
BRANCH  98 100
HETATM  100  N   UNL     1      10.226 -20.581  12.064  1.00  0.00    -0.334 N 
HETATM  101  C   UNL     1      11.198 -20.204  11.177  1.00  0.00     0.082 A 
HETATM  102  C   UNL     1      12.362 -20.741  11.679  1.00  0.00     0.150 A 
HETATM  103  N   UNL     1      12.123 -21.439  12.835  1.00  0.00    -0.254 NA
HETATM  104  C   UNL     1      10.833 -21.317  13.048  1.00  0.00     0.210 A 
ENDBRANCH  98 100
ENDBRANCH  97  98
ENDBRANCH  96  97
BRANCH  96 105
HETATM  105  N   UNL     1       9.360 -22.964   9.850  1.00  0.00    -0.345 N 
HETATM  106  C   UNL     1      10.063 -23.891  10.564  1.00  0.00     0.209 A 
HETATM  107  N   UNL     1      11.236 -24.142  10.024  1.00  0.00    -0.255 NA
HETATM  108  C   UNL     1      11.288 -23.392   8.888  1.00  0.00     0.135 A 
HETATM  109  C   UNL     1      10.139 -22.652   8.755  1.00  0.00     0.111 A 
ENDBRANCH  96 105
ENDBRANCH  95  96
ENDBRANCH  89  95
ENDBRANCH  88  89
ENDBRANCH  87  88
BRANCH  87 110
HETATM  110  N   UNL     1       7.662 -19.819   7.449  1.00  0.00    -0.345 N 
HETATM  111  C   UNL     1       8.751 -19.841   6.617  1.00  0.00     0.111 A 
HETATM  112  C   UNL     1       9.766 -19.204   7.288  1.00  0.00     0.135 A 
HETATM  113  N   UNL     1       9.315 -18.699   8.468  1.00  0.00    -0.255 NA
HETATM  114  C   UNL     1       8.051 -19.050   8.524  1.00  0.00     0.209 A 
ENDBRANCH  87 110
ENDBRANCH  86  87
ENDBRANCH  80  86
ENDBRANCH  79  80
ENDBRANCH  77  79
ENDBRANCH   4  77
BRANCH   5 115
HETATM  115  O   UNL     1       0.971 -22.176   1.333  1.00  0.00    -0.348 OA
BRANCH 115 116
HETATM  116  C   UNL     1       0.842 -22.153   2.804  1.00  0.00     0.186 C 
HETATM  117  C   UNL     1      -0.468 -21.469   3.280  1.00  0.00     0.179 C 
HETATM  118  O   UNL     1      -1.453 -22.408   3.745  1.00  0.00    -0.349 OA
HETATM  119  C   UNL     1      -1.077 -23.218   4.864  1.00  0.00     0.296 C 
HETATM  120  C   UNL     1       0.389 -23.764   4.753  1.00  0.00     0.303 C 
HETATM  121  C   UNL     1       0.955 -23.605   3.321  1.00  0.00     0.187 C 
BRANCH 117 122
HETATM  122  C   UNL     1      -0.209 -20.416   4.381  1.00  0.00     0.198 C 
BRANCH 122 123
HETATM  123  O   UNL     1      -1.368 -20.208   5.184  1.00  0.00    -0.398 OA
HETATM  124  H   UNL     1      -1.750 -21.081   5.399  1.00  0.00     0.209 HD
ENDBRANCH 122 123
ENDBRANCH 117 122
BRANCH 119 125
HETATM  125  O   UNL     1      -2.011 -24.307   4.944  1.00  0.00    -0.348 OA
BRANCH 125 126
HETATM  126  C   UNL     1      -2.852 -24.340   6.115  1.00  0.00     0.186 C 
HETATM  127  C   UNL     1      -2.110 -23.782   7.357  1.00  0.00     0.176 C 
HETATM  128  O   UNL     1      -2.956 -22.947   8.190  1.00  0.00    -0.379 OA
HETATM  129  C   UNL     1      -4.273 -23.468   8.376  1.00  0.00     0.206 C 
HETATM  130  C   UNL     1      -5.065 -23.476   7.053  1.00  0.00     0.272 C 
HETATM  131  C   UNL     1      -4.100 -23.463   5.840  1.00  0.00     0.184 C 
BRANCH 127 132
HETATM  132  C   UNL     1      -1.496 -24.878   8.241  1.00  0.00     0.198 C 
BRANCH 132 133
HETATM  133  O   UNL     1      -1.246 -26.047   7.461  1.00  0.00    -0.398 OA
HETATM  134  H   UNL     1      -0.511 -26.521   7.900  1.00  0.00     0.209 HD
ENDBRANCH 132 133
ENDBRANCH 127 132
BRANCH 130 135
HETATM  135  N   UNL     1      -6.031 -22.362   6.949  1.00  0.00     0.087 N 
HETATM  136  H   UNL     1      -6.259 -22.239   5.955  1.00  0.00     0.313 HD
HETATM  137  H   UNL     1      -5.612 -21.478   7.236  1.00  0.00     0.313 HD
ENDBRANCH 130 135
BRANCH 131 138
HETATM  138  O   UNL     1      -3.725 -22.098   5.549  1.00  0.00    -0.391 OA
HETATM  139  H   UNL     1      -4.427 -21.528   5.918  1.00  0.00     0.210 HD
ENDBRANCH 131 138
ENDBRANCH 125 126
ENDBRANCH 119 125
BRANCH 120 140
HETATM  140  N   UNL     1       0.525 -25.152   5.257  1.00  0.00     0.090 N 
HETATM  141  H   UNL     1       0.054 -25.223   6.160  1.00  0.00     0.313 HD
HETATM  142  H   UNL     1       1.518 -25.246   5.518  1.00  0.00     0.313 HD
ENDBRANCH 120 140
BRANCH 121 143
HETATM  143  O   UNL     1       0.348 -24.536   2.423  1.00  0.00    -0.391 OA
HETATM  144  H   UNL     1      -0.618 -24.384   2.477  1.00  0.00     0.210 HD
ENDBRANCH 121 143
ENDBRANCH 115 116
ENDBRANCH   5 115
TORSDOF 58
ENDMDL
MODEL 9
REMARK VINA RESULT:      -5.9      3.565     14.266
REMARK WARNING: 32 MAX_TORS EXCEEDED!!!
REMARK  58 active torsions:
REMARK  status: ('A' for Active; 'I' for Inactive)
REMARK    1  A    between atoms: C_1  and  O_30 
REMARK    2  A    between atoms: C_2  and  C_6 
REMARK    3  A    between atoms: C_3  and  O_9 
REMARK    4  A    between atoms: C_4  and  N_11 
REMARK    5  A    between atoms: C_5  and  O_12 
REMARK    6  A    between atoms: C_6  and  O_7 
REMARK    7  A    between atoms: N_11  and  C_118 
REMARK    8  A    between atoms: O_12  and  C_20 
REMARK    9  A    between atoms: O_14  and  C_18 
REMARK   10  A    between atoms: C_16  and  C_23 
REMARK   11  A    between atoms: O_17  and  C_23 
REMARK   12  A    between atoms: O_19  and  C_22 
REMARK   13  A    between atoms: O_19  and  C_42 
REMARK   14  A    between atoms: N_21  and  C_24 
REMARK   15  A    between atoms: O_26  and  C_29 
REMARK   16  A    between atoms: C_28  and  C_34 
REMARK   17  A    between atoms: O_30  and  C_33 
REMARK   18  A    between atoms: C_31  and  O_53 
REMARK   19  A    between atoms: N_32  and  C_35 
REMARK   20  A    between atoms: C_34  and  O_65 
REMARK   21  A    between atoms: O_37  and  C_41 
REMARK   22  A    between atoms: C_39  and  C_45 
REMARK   23  A    between atoms: O_40  and  C_45 
REMARK   24  A    between atoms: N_43  and  C_46 
REMARK   25  A    between atoms: O_48  and  C_52 
REMARK   26  A    between atoms: C_50  and  C_57 
REMARK   27  A    between atoms: O_51  and  C_57 
REMARK   28  A    between atoms: O_53  and  C_56 
REMARK   29  A    between atoms: N_55  and  C_58 
REMARK   30  A    between atoms: N_55  and  C_71 
REMARK   31  A    between atoms: C_71  and  C_73 
REMARK   32  A    between atoms: C_73  and  C_74 
REMARK   33  A    between atoms: C_73  and  N_87 
REMARK   34  A    between atoms: C_74  and  C_75 
REMARK   35  A    between atoms: C_75  and  C_76 
REMARK   36  A    between atoms: C_75  and  N_101 
REMARK   37  A    between atoms: C_76  and  C_77 
REMARK   38  A    between atoms: C_77  and  C_78 
REMARK   39  A    between atoms: C_77  and  N_91 
REMARK   40  A    between atoms: C_78  and  C_79 
REMARK   41  A    between atoms: C_79  and  C_80 
REMARK   42  A    between atoms: C_79  and  N_106 
REMARK   43  A    between atoms: C_80  and  C_81 
REMARK   44  A    between atoms: C_81  and  N_96 
REMARK   45  A    between atoms: N_113  and  C_119 
REMARK   46  A    between atoms: C_118  and  C_119 
REMARK   47  A    between atoms: C_119  and  C_126 
REMARK   48  A    between atoms: N_122  and  C_128 
REMARK   49  A    between atoms: C_124  and  C_128 
REMARK   50  A    between atoms: C_124  and  C_130 
REMARK   51  A    between atoms: N_125  and  C_135 
REMARK   52  A    between atoms: C_126  and  C_130 
REMARK   53  A    between atoms: C_128  and  C_132 
REMARK   54  A    between atoms: N_129  and  C_130 
REMARK   55  A    between atoms: C_132  and  C_137 
REMARK   56  A    between atoms: C_135  and  C_136 
REMARK   57  A    between atoms: C_136  and  C_137 
REMARK   58  A    between atoms: C_137  and  N_140 
ROOT
HETATM    1  C   UNL     1       0.489 -11.552  -1.034  1.00  0.00     0.186 C 
HETATM    2  C   UNL     1       0.575 -11.067  -2.533  1.00  0.00     0.179 C 
HETATM    3  C   UNL     1       1.336 -10.715  -0.021  1.00  0.00     0.188 C 
HETATM    4  C   UNL     1       1.558  -9.224  -0.442  1.00  0.00     0.306 C 
HETATM    5  C   UNL     1       2.205  -9.456  -1.858  1.00  0.00     0.296 C 
HETATM    6  O   UNL     1       1.166  -9.756  -2.768  1.00  0.00    -0.349 OA
ENDROOT
BRANCH   1   7
HETATM    7  O   UNL     1      -0.891 -11.625  -0.625  1.00  0.00    -0.348 OA
BRANCH   7   8
HETATM    8  C   UNL     1      -1.753 -10.624  -1.213  1.00  0.00     0.296 C 
HETATM    9  O   UNL     1      -2.522 -10.049  -0.149  1.00  0.00    -0.349 OA
HETATM   10  C   UNL     1      -3.551  -9.111  -0.538  1.00  0.00     0.179 C 
HETATM   11  C   UNL     1      -4.441  -9.637  -1.684  1.00  0.00     0.186 C 
HETATM   12  C   UNL     1      -4.149 -11.119  -1.951  1.00  0.00     0.187 C 
HETATM   13  C   UNL     1      -2.666 -11.281  -2.306  1.00  0.00     0.303 C 
BRANCH  10  14
HETATM   14  C   UNL     1      -2.943  -7.735  -0.876  1.00  0.00     0.198 C 
BRANCH  14  15
HETATM   15  O   UNL     1      -3.950  -6.751  -1.102  1.00  0.00    -0.398 OA
HETATM   16  H   UNL     1      -4.728  -7.205  -1.477  1.00  0.00     0.209 HD
ENDBRANCH  14  15
ENDBRANCH  10  14
BRANCH  11  17
HETATM   17  O   UNL     1      -5.836  -9.543  -1.386  1.00  0.00    -0.348 OA
BRANCH  17  18
HETATM   18  C   UNL     1      -6.597  -8.737  -2.275  1.00  0.00     0.296 C 
HETATM   19  O   UNL     1      -5.712  -7.903  -3.017  1.00  0.00    -0.351 OA
HETATM   20  C   UNL     1      -6.173  -6.576  -3.317  1.00  0.00     0.150 C 
HETATM   21  C   UNL     1      -7.668  -6.560  -3.623  1.00  0.00     0.068 C 
HETATM   22  C   UNL     1      -8.502  -7.158  -2.483  1.00  0.00     0.158 C 
HETATM   23  C   UNL     1      -7.687  -7.988  -1.456  1.00  0.00     0.303 C 
BRANCH  20  24
HETATM   24  C   UNL     1      -5.356  -6.035  -4.503  1.00  0.00     0.196 C 
BRANCH  24  25
HETATM   25  O   UNL     1      -4.303  -5.200  -4.022  1.00  0.00    -0.398 OA
HETATM   26  H   UNL     1      -3.895  -5.652  -3.264  1.00  0.00     0.209 HD
ENDBRANCH  24  25
ENDBRANCH  20  24
BRANCH  22  27
HETATM   27  O   UNL     1      -9.217  -6.112  -1.818  1.00  0.00    -0.393 OA
HETATM   28  H   UNL     1      -9.631  -5.588  -2.535  1.00  0.00     0.210 HD
ENDBRANCH  22  27
BRANCH  23  29
HETATM   29  N   UNL     1      -7.211  -7.073  -0.380  1.00  0.00     0.097 N 
HETATM   30  H   UNL     1      -6.273  -6.766  -0.660  1.00  0.00     0.316 HD
BRANCH  29  31
HETATM   31  C   UNL     1      -7.018  -7.651   0.960  1.00  0.00     0.296 C 
BRANCH  31  32
HETATM   32  C   UNL     1      -6.715  -6.641   2.150  1.00  0.00     0.120 C 
BRANCH  32  33
HETATM   33  C   UNL     1      -5.908  -5.405   1.602  1.00  0.00     0.053 C 
BRANCH  33  34
HETATM   34  C   UNL     1      -6.580  -3.966   1.483  1.00  0.00     0.094 C 
BRANCH  34  35
HETATM   35  C   UNL     1      -6.522  -3.202   2.866  1.00  0.00     0.051 C 
BRANCH  35  36
HETATM   36  C   UNL     1      -5.420  -3.490   3.961  1.00  0.00     0.094 C 
BRANCH  36  37
HETATM   37  C   UNL     1      -4.669  -2.187   4.413  1.00  0.00     0.051 C 
BRANCH  37  38
HETATM   38  C   UNL     1      -5.486  -0.857   4.625  1.00  0.00     0.094 C 
BRANCH  38  39
HETATM   39  C   UNL     1      -5.442   0.062   3.349  1.00  0.00     0.051 C 
BRANCH  39  40
HETATM   40  C   UNL     1      -5.191   1.593   3.419  1.00  0.00     0.089 C 
HETATM   41  C   UNL     1      -4.501   1.930   4.756  1.00  0.00     0.033 C 
BRANCH  40  42
HETATM   42  N   UNL     1      -4.394   2.156   2.337  1.00  0.00    -0.334 N 
HETATM   43  C   UNL     1      -3.246   2.889   2.500  1.00  0.00     0.210 A 
HETATM   44  N   UNL     1      -2.709   3.206   1.344  1.00  0.00    -0.254 NA
HETATM   45  C   UNL     1      -3.538   2.657   0.401  1.00  0.00     0.150 A 
HETATM   46  C   UNL     1      -4.593   1.999   0.994  1.00  0.00     0.082 A 
ENDBRANCH  40  42
ENDBRANCH  39  40
ENDBRANCH  38  39
BRANCH  38  47
HETATM   47  N   UNL     1      -6.707  -0.904   5.409  1.00  0.00    -0.345 N 
HETATM   48  C   UNL     1      -8.005  -0.767   5.015  1.00  0.00     0.209 A 
HETATM   49  N   UNL     1      -8.831  -0.791   6.038  1.00  0.00    -0.255 NA
HETATM   50  C   UNL     1      -8.056  -1.015   7.137  1.00  0.00     0.135 A 
HETATM   51  C   UNL     1      -6.732  -1.088   6.775  1.00  0.00     0.111 A 
ENDBRANCH  38  47
ENDBRANCH  37  38
ENDBRANCH  36  37
BRANCH  36  52
HETATM   52  N   UNL     1      -5.985  -4.134   5.158  1.00  0.00    -0.345 N 
HETATM   53  C   UNL     1      -5.299  -4.453   6.298  1.00  0.00     0.209 A 
HETATM   54  N   UNL     1      -6.088  -4.948   7.224  1.00  0.00    -0.255 NA
HETATM   55  C   UNL     1      -7.332  -4.968   6.667  1.00  0.00     0.135 A 
HETATM   56  C   UNL     1      -7.302  -4.414   5.410  1.00  0.00     0.111 A 
ENDBRANCH  36  52
ENDBRANCH  35  36
ENDBRANCH  34  35
BRANCH  34  57
HETATM   57  N   UNL     1      -6.307  -3.271   0.226  1.00  0.00    -0.345 N 
HETATM   58  C   UNL     1      -5.921  -1.958   0.105  1.00  0.00     0.209 A 
HETATM   59  N   UNL     1      -5.977  -1.528  -1.134  1.00  0.00    -0.255 NA
HETATM   60  C   UNL     1      -6.466  -2.575  -1.853  1.00  0.00     0.135 A 
HETATM   61  C   UNL     1      -6.734  -3.639  -1.027  1.00  0.00     0.111 A 
ENDBRANCH  34  57
ENDBRANCH  33  34
ENDBRANCH  32  33
BRANCH  32  62
HETATM   62  N   UNL     1      -6.213  -7.231   3.397  1.00  0.00    -0.344 N 
HETATM   63  C   UNL     1      -6.879  -7.854   4.419  1.00  0.00     0.111 A 
HETATM   64  C   UNL     1      -5.931  -8.209   5.347  1.00  0.00     0.135 A 
HETATM   65  N   UNL     1      -4.702  -7.784   4.954  1.00  0.00    -0.255 NA
HETATM   66  C   UNL     1      -4.899  -7.191   3.799  1.00  0.00     0.209 A 
ENDBRANCH  32  62
ENDBRANCH  31  32
ENDBRANCH  29  31
ENDBRANCH  23  29
ENDBRANCH  17  18
ENDBRANCH  11  17
BRANCH  12  67
HETATM   67  O   UNL     1      -4.493 -11.944  -0.823  1.00  0.00    -0.391 OA
HETATM   68  H   UNL     1      -4.188 -12.851  -1.021  1.00  0.00     0.210 HD
ENDBRANCH  12  67
BRANCH  13  69
HETATM   69  N   UNL     1      -2.400 -12.707  -2.589  1.00  0.00     0.090 N 
HETATM   70  H   UNL     1      -3.307 -13.184  -2.547  1.00  0.00     0.313 HD
HETATM   71  H   UNL     1      -1.904 -13.060  -1.760  1.00  0.00     0.313 HD
ENDBRANCH  13  69
ENDBRANCH   7   8
ENDBRANCH   1   7
BRANCH   2  72
HETATM   72  C   UNL     1       1.326 -12.136  -3.373  1.00  0.00     0.198 C 
BRANCH  72  73
HETATM   73  O   UNL     1       2.615 -12.407  -2.835  1.00  0.00    -0.398 OA
HETATM   74  H   UNL     1       3.223 -12.569  -3.577  1.00  0.00     0.209 HD
ENDBRANCH  72  73
ENDBRANCH   2  72
BRANCH   3  75
HETATM   75  O   UNL     1       0.907 -10.870   1.330  1.00  0.00    -0.391 OA
HETATM   76  H   UNL     1       1.702 -10.891   1.893  1.00  0.00     0.210 HD
ENDBRANCH   3  75
BRANCH   4  77
HETATM   77  N   UNL     1       0.315  -8.432  -0.067  1.00  0.00     0.097 N 
HETATM   78  H   UNL     1      -0.127  -8.911   0.716  1.00  0.00     0.316 HD
BRANCH  77  79
HETATM   79  C   UNL     1       0.401  -6.989   0.265  1.00  0.00     0.296 C 
BRANCH  79  80
HETATM   80  C   UNL     1       0.365  -5.883  -0.971  1.00  0.00     0.120 C 
BRANCH  80  81
HETATM   81  N   UNL     1       1.404  -4.854  -0.895  1.00  0.00    -0.344 N 
HETATM   82  C   UNL     1       2.533  -4.700  -1.657  1.00  0.00     0.111 A 
HETATM   83  C   UNL     1       3.221  -3.642  -1.103  1.00  0.00     0.135 A 
HETATM   84  N   UNL     1       2.555  -3.155  -0.013  1.00  0.00    -0.255 NA
HETATM   85  C   UNL     1       1.500  -3.911   0.100  1.00  0.00     0.209 A 
ENDBRANCH  80  81
BRANCH  80  86
HETATM   86  C   UNL     1       0.133  -6.542  -2.401  1.00  0.00     0.053 C 
BRANCH  86  87
HETATM   87  C   UNL     1      -0.526  -5.867  -3.723  1.00  0.00     0.094 C 
BRANCH  87  88
HETATM   88  C   UNL     1       0.371  -4.811  -4.519  1.00  0.00     0.051 C 
BRANCH  88  89
HETATM   89  C   UNL     1       0.312  -3.241  -4.148  1.00  0.00     0.094 C 
BRANCH  89  90
HETATM   90  N   UNL     1      -0.957  -2.826  -3.516  1.00  0.00    -0.345 N 
HETATM   91  C   UNL     1      -1.288  -2.837  -2.188  1.00  0.00     0.111 A 
HETATM   92  C   UNL     1      -2.627  -2.524  -2.128  1.00  0.00     0.135 A 
HETATM   93  N   UNL     1      -3.133  -2.354  -3.380  1.00  0.00    -0.255 NA
HETATM   94  C   UNL     1      -2.108  -2.496  -4.186  1.00  0.00     0.209 A 
ENDBRANCH  89  90
BRANCH  89  95
HETATM   95  C   UNL     1       0.573  -2.285  -5.383  1.00  0.00     0.051 C 
BRANCH  95  96
HETATM   96  C   UNL     1       1.899  -1.406  -5.461  1.00  0.00     0.094 C 
BRANCH  96  97
HETATM   97  C   UNL     1       1.817  -0.130  -4.532  1.00  0.00     0.051 C 
BRANCH  97  98
HETATM   98  C   UNL     1       2.093  -0.163  -2.997  1.00  0.00     0.089 C 
HETATM   99  C   UNL     1       3.247   0.806  -2.665  1.00  0.00     0.033 C 
BRANCH  98 100
HETATM  100  N   UNL     1       0.959   0.180  -2.146  1.00  0.00    -0.334 N 
HETATM  101  C   UNL     1       0.851  -0.015  -0.796  1.00  0.00     0.082 A 
HETATM  102  C   UNL     1      -0.431   0.378  -0.482  1.00  0.00     0.150 A 
HETATM  103  N   UNL     1      -1.104   0.794  -1.601  1.00  0.00    -0.254 NA
HETATM  104  C   UNL     1      -0.242   0.675  -2.584  1.00  0.00     0.210 A 
ENDBRANCH  98 100
ENDBRANCH  97  98
ENDBRANCH  96  97
BRANCH  96 105
HETATM  105  N   UNL     1       3.188  -2.055  -5.624  1.00  0.00    -0.345 N 
HETATM  106  C   UNL     1       3.935  -2.760  -4.725  1.00  0.00     0.209 A 
HETATM  107  N   UNL     1       5.110  -3.093  -5.215  1.00  0.00    -0.255 NA
HETATM  108  C   UNL     1       5.118  -2.636  -6.498  1.00  0.00     0.135 A 
HETATM  109  C   UNL     1       3.940  -1.988  -6.779  1.00  0.00     0.111 A 
ENDBRANCH  96 105
ENDBRANCH  95  96
ENDBRANCH  89  95
ENDBRANCH  88  89
ENDBRANCH  87  88
BRANCH  87 110
HETATM  110  N   UNL     1      -1.411  -6.754  -4.491  1.00  0.00    -0.345 N 
HETATM  111  C   UNL     1      -1.701  -6.693  -5.829  1.00  0.00     0.111 A 
HETATM  112  C   UNL     1      -2.380  -7.848  -6.133  1.00  0.00     0.135 A 
HETATM  113  N   UNL     1      -2.433  -8.669  -5.049  1.00  0.00    -0.255 NA
HETATM  114  C   UNL     1      -1.820  -8.009  -4.095  1.00  0.00     0.209 A 
ENDBRANCH  87 110
ENDBRANCH  86  87
ENDBRANCH  80  86
ENDBRANCH  79  80
ENDBRANCH  77  79
ENDBRANCH   4  77
BRANCH   5 115
HETATM  115  O   UNL     1       3.132  -8.431  -2.270  1.00  0.00    -0.348 OA
BRANCH 115 116
HETATM  116  C   UNL     1       4.536  -8.885  -2.308  1.00  0.00     0.186 C 
HETATM  117  C   UNL     1       4.829 -10.015  -1.285  1.00  0.00     0.179 C 
HETATM  118  O   UNL     1       4.957 -11.309  -1.902  1.00  0.00    -0.349 OA
HETATM  119  C   UNL     1       6.008 -11.451  -2.862  1.00  0.00     0.296 C 
HETATM  120  C   UNL     1       6.120 -10.220  -3.827  1.00  0.00     0.303 C 
HETATM  121  C   UNL     1       4.865  -9.317  -3.755  1.00  0.00     0.187 C 
BRANCH 117 122
HETATM  122  C   UNL     1       6.092  -9.727  -0.442  1.00  0.00     0.198 C 
BRANCH 122 123
HETATM  123  O   UNL     1       5.790  -9.691   0.950  1.00  0.00    -0.398 OA
HETATM  124  H   UNL     1       4.889  -9.328   1.057  1.00  0.00     0.209 HD
ENDBRANCH 122 123
ENDBRANCH 117 122
BRANCH 119 125
HETATM  125  O   UNL     1       5.753 -12.651  -3.610  1.00  0.00    -0.348 OA
BRANCH 125 126
HETATM  126  C   UNL     1       6.456 -13.833  -3.178  1.00  0.00     0.186 C 
HETATM  127  C   UNL     1       7.634 -13.475  -2.237  1.00  0.00     0.176 C 
HETATM  128  O   UNL     1       7.763 -14.393  -1.120  1.00  0.00    -0.379 OA
HETATM  129  C   UNL     1       7.590 -15.765  -1.482  1.00  0.00     0.206 C 
HETATM  130  C   UNL     1       6.145 -16.046  -1.940  1.00  0.00     0.272 C 
HETATM  131  C   UNL     1       5.459 -14.738  -2.412  1.00  0.00     0.184 C 
BRANCH 127 132
HETATM  132  C   UNL     1       8.989 -13.401  -2.958  1.00  0.00     0.198 C 
BRANCH 132 133
HETATM  133  O   UNL     1       8.930 -12.432  -4.004  1.00  0.00    -0.398 OA
HETATM  134  H   UNL     1       9.562 -11.726  -3.763  1.00  0.00     0.209 HD
ENDBRANCH 132 133
ENDBRANCH 127 132
BRANCH 130 135
HETATM  135  N   UNL     1       5.326 -16.707  -0.902  1.00  0.00     0.087 N 
HETATM  136  H   UNL     1       4.604 -16.040  -0.604  1.00  0.00     0.313 HD
HETATM  137  H   UNL     1       5.873 -16.899  -0.064  1.00  0.00     0.313 HD
ENDBRANCH 130 135
BRANCH 131 138
HETATM  138  O   UNL     1       4.909 -14.053  -1.264  1.00  0.00    -0.391 OA
HETATM  139  H   UNL     1       4.755 -13.128  -1.535  1.00  0.00     0.210 HD
ENDBRANCH 131 138
ENDBRANCH 125 126
ENDBRANCH 119 125
BRANCH 120 140
HETATM  140  N   UNL     1       6.449 -10.609  -5.220  1.00  0.00     0.090 N 
HETATM  141  H   UNL     1       7.322 -11.140  -5.217  1.00  0.00     0.313 HD
HETATM  142  H   UNL     1       6.727  -9.732  -5.684  1.00  0.00     0.313 HD
ENDBRANCH 120 140
BRANCH 121 143
HETATM  143  O   UNL     1       3.747  -9.942  -4.388  1.00  0.00    -0.391 OA
HETATM  144  H   UNL     1       3.461  -9.338  -5.104  1.00  0.00     0.210 HD
ENDBRANCH 121 143
ENDBRANCH 115 116
ENDBRANCH   5 115
TORSDOF 58
ENDMDL
