MODEL 1
REMARK VINA RESULT:      -4.9      0.000      0.000
REMARK WARNING: 32 MAX_TORS EXCEEDED!!!
REMARK  88 active torsions:
REMARK  status: ('A' for Active; 'I' for Inactive)
REMARK    1  A    between atoms: C_1  and  O_28 
REMARK    2  A    between atoms: C_2  and  C_6 
REMARK    3  A    between atoms: C_3  and  O_8 
REMARK    4  A    between atoms: C_4  and  N_10 
REMARK    5  A    between atoms: C_5  and  O_11 
REMARK    6  A    between atoms: C_6  and  O_65 
REMARK    7  A    between atoms: O_11  and  C_18 
REMARK    8  A    between atoms: O_13  and  C_16 
REMARK    9  A    between atoms: C_15  and  C_21 
REMARK   10  A    between atoms: O_17  and  C_20 
REMARK   11  A    between atoms: O_17  and  C_39 
REMARK   12  A    between atoms: N_19  and  C_22 
REMARK   13  A    between atoms: N_19  and  C_161 
REMARK   14  A    between atoms: C_21  and  O_67 
REMARK   15  A    between atoms: O_24  and  C_27 
REMARK   16  A    between atoms: C_26  and  C_32 
REMARK   17  A    between atoms: O_28  and  C_31 
REMARK   18  A    between atoms: C_29  and  O_49 
REMARK   19  A    between atoms: N_30  and  C_33 
REMARK   20  A    between atoms: C_32  and  O_63 
REMARK   21  A    between atoms: O_35  and  C_38 
REMARK   22  A    between atoms: C_37  and  C_42 
REMARK   23  A    between atoms: N_40  and  C_43 
REMARK   24  A    between atoms: C_42  and  O_69 
REMARK   25  A    between atoms: O_45  and  C_48 
REMARK   26  A    between atoms: C_47  and  C_53 
REMARK   27  A    between atoms: O_49  and  C_52 
REMARK   28  A    between atoms: N_51  and  C_54 
REMARK   29  A    between atoms: N_51  and  C_71 
REMARK   30  A    between atoms: C_53  and  O_61 
REMARK   31  A    between atoms: C_71  and  C_73 
REMARK   32  A    between atoms: C_73  and  C_74 
REMARK   33  A    between atoms: C_73  and  C_83 
REMARK   34  A    between atoms: C_74  and  C_75 
REMARK   35  A    between atoms: C_75  and  C_76 
REMARK   36  A    between atoms: C_75  and  C_87 
REMARK   37  A    between atoms: C_76  and  C_77 
REMARK   38  A    between atoms: C_77  and  C_78 
REMARK   39  A    between atoms: C_77  and  C_91 
REMARK   40  A    between atoms: C_78  and  C_79 
REMARK   41  A    between atoms: C_79  and  C_80 
REMARK   42  A    between atoms: C_79  and  C_95 
REMARK   43  A    between atoms: C_80  and  C_81 
REMARK   44  A    between atoms: C_81  and  C_99 
REMARK   45  A    between atoms: C_83  and  C_84 
REMARK   46  A    between atoms: C_84  and  C_85 
REMARK   47  A    between atoms: C_85  and  N_103 
REMARK   48  A    between atoms: C_87  and  C_88 
REMARK   49  A    between atoms: C_88  and  C_89 
REMARK   50  A    between atoms: C_89  and  N_104 
REMARK   51  A    between atoms: C_91  and  C_92 
REMARK   52  A    between atoms: C_92  and  C_93 
REMARK   53  A    between atoms: C_93  and  N_105 
REMARK   54  A    between atoms: C_95  and  C_96 
REMARK   55  A    between atoms: C_96  and  C_97 
REMARK   56  A    between atoms: C_97  and  N_106 
REMARK   57  A    between atoms: C_99  and  C_100 
REMARK   58  A    between atoms: C_100  and  C_101 
REMARK   59  A    between atoms: C_101  and  N_107 
REMARK   60  A    between atoms: N_126  and  C_129 
REMARK   61  A    between atoms: C_129  and  C_135 
REMARK   62  A    between atoms: C_130  and  C_135 
REMARK   63  A    between atoms: C_130  and  C_142 
REMARK   64  A    between atoms: N_132  and  C_139 
REMARK   65  A    between atoms: C_136  and  C_137 
REMARK   66  A    between atoms: C_136  and  C_146 
REMARK   67  A    between atoms: C_137  and  C_139 
REMARK   68  A    between atoms: N_141  and  C_152 
REMARK   69  A    between atoms: C_142  and  C_153 
REMARK   70  A    between atoms: C_142  and  C_159 
REMARK   71  A    between atoms: C_144  and  C_152 
REMARK   72  A    between atoms: C_144  and  C_156 
REMARK   73  A    between atoms: C_146  and  C_162 
REMARK   74  A    between atoms: C_146  and  C_153 
REMARK   75  A    between atoms: C_148  and  C_156 
REMARK   76  A    between atoms: C_148  and  C_149 
REMARK   77  A    between atoms: C_149  and  C_163 
REMARK   78  A    between atoms: C_150  and  C_161 
REMARK   79  A    between atoms: C_150  and  C_159 
REMARK   80  A    between atoms: C_150  and  C_160 
REMARK   81  A    between atoms: C_151  and  N_157 
REMARK   82  A    between atoms: C_151  and  C_154 
REMARK   83  A    between atoms: C_154  and  C_160 
REMARK   84  A    between atoms: C_162  and  C_163 
REMARK   85  A    between atoms: C_163  and  C_169 
REMARK   86  A    between atoms: C_166  and  C_171 
REMARK   87  A    between atoms: C_166  and  C_169 
REMARK   88  A    between atoms: N_167  and  C_171 
ROOT
HETATM    1  C   UNL     1      13.165 -26.089  13.748  1.00  0.00     0.186 C 
HETATM    2  C   UNL     1      11.769 -25.433  13.652  1.00  0.00     0.179 C 
HETATM    3  C   UNL     1      13.696 -26.458  12.347  1.00  0.00     0.187 C 
HETATM    4  C   UNL     1      12.605 -27.137  11.484  1.00  0.00     0.303 C 
HETATM    5  C   UNL     1      11.318 -26.244  11.408  1.00  0.00     0.296 C 
HETATM    6  O   UNL     1      11.414 -25.122  12.292  1.00  0.00    -0.349 OA
ENDROOT
BRANCH   1   7
HETATM    7  O   UNL     1      14.061 -25.152  14.362  1.00  0.00    -0.348 OA
BRANCH   7   8
HETATM    8  C   UNL     1      13.474 -23.892  14.719  1.00  0.00     0.296 C 
HETATM    9  O   UNL     1      13.902 -22.953  13.737  1.00  0.00    -0.349 OA
HETATM   10  C   UNL     1      13.670 -21.563  14.018  1.00  0.00     0.179 C 
HETATM   11  C   UNL     1      13.943 -21.140  15.477  1.00  0.00     0.186 C 
HETATM   12  C   UNL     1      14.674 -22.226  16.257  1.00  0.00     0.187 C 
HETATM   13  C   UNL     1      13.865 -23.525  16.191  1.00  0.00     0.303 C 
BRANCH  10  14
HETATM   14  C   UNL     1      12.242 -21.209  13.573  1.00  0.00     0.198 C 
BRANCH  14  15
HETATM   15  O   UNL     1      12.154 -19.826  13.230  1.00  0.00    -0.398 OA
HETATM   16  H   UNL     1      11.559 -19.413  13.886  1.00  0.00     0.209 HD
ENDBRANCH  14  15
ENDBRANCH  10  14
BRANCH  11  17
HETATM   17  O   UNL     1      14.793 -19.981  15.490  1.00  0.00    -0.348 OA
BRANCH  17  18
HETATM   18  C   UNL     1      15.329 -19.659  14.211  1.00  0.00     0.296 C 
HETATM   19  O   UNL     1      16.707 -20.049  14.177  1.00  0.00    -0.351 OA
HETATM   20  C   UNL     1      17.209 -20.172  12.831  1.00  0.00     0.150 C 
HETATM   21  C   UNL     1      16.568 -19.117  11.908  1.00  0.00     0.068 C 
HETATM   22  C   UNL     1      16.239 -17.855  12.720  1.00  0.00     0.158 C 
HETATM   23  C   UNL     1      15.187 -18.126  13.849  1.00  0.00     0.303 C 
BRANCH  20  24
HETATM   24  C   UNL     1      17.099 -21.623  12.339  1.00  0.00     0.196 C 
BRANCH  24  25
HETATM   25  O   UNL     1      17.493 -22.550  13.347  1.00  0.00    -0.398 OA
HETATM   26  H   UNL     1      17.956 -23.275  12.887  1.00  0.00     0.209 HD
ENDBRANCH  24  25
ENDBRANCH  20  24
BRANCH  22  27
HETATM   27  O   UNL     1      17.472 -17.393  13.297  1.00  0.00    -0.393 OA
HETATM   28  H   UNL     1      17.261 -17.016  14.175  1.00  0.00     0.210 HD
ENDBRANCH  22  27
BRANCH  23  29
HETATM   29  N   UNL     1      15.390 -17.213  15.019  1.00  0.00     0.096 N 
HETATM   30  H   UNL     1      16.318 -16.811  14.893  1.00  0.00     0.316 HD
BRANCH  29  31
HETATM   31  C   UNL     1      14.386 -16.141  15.255  1.00  0.00     0.287 C 
BRANCH  31  32
HETATM   32  C   UNL     1      14.883 -14.649  14.893  1.00  0.00     0.044 C 
HETATM   33  C   UNL     1      14.816 -14.454  13.371  1.00  0.00     0.025 C 
BRANCH  32  34
HETATM   34  C   UNL     1      16.372 -14.332  15.459  1.00  0.00     0.035 C 
BRANCH  34  35
HETATM   35  C   UNL     1      16.900 -14.676  16.962  1.00  0.00     0.019 C 
HETATM   36  C   UNL     1      17.537 -13.339  17.427  1.00  0.00     0.023 C 
BRANCH  35  37
HETATM   37  C   UNL     1      18.027 -15.840  16.871  1.00  0.00     0.033 C 
BRANCH  37  38
HETATM   38  C   UNL     1      19.647 -15.686  16.665  1.00  0.00     0.019 C 
HETATM   39  C   UNL     1      19.928 -14.853  15.403  1.00  0.00     0.023 C 
BRANCH  38  40
HETATM   40  C   UNL     1      20.192 -17.178  16.449  1.00  0.00     0.033 C 
BRANCH  40  41
HETATM   41  C   UNL     1      21.465 -17.948  17.108  1.00  0.00     0.019 C 
HETATM   42  C   UNL     1      22.644 -16.947  16.961  1.00  0.00     0.023 C 
BRANCH  41  43
HETATM   43  C   UNL     1      21.352 -18.400  18.603  1.00  0.00     0.033 C 
BRANCH  43  44
HETATM   44  C   UNL     1      20.311 -19.422  19.200  1.00  0.00     0.014 C 
HETATM   45  C   UNL     1      20.603 -19.503  20.725  1.00  0.00     0.023 C 
HETATM   46  C   UNL     1      20.478 -20.871  18.701  1.00  0.00     0.023 C 
BRANCH  44  47
HETATM   47  C   UNL     1      18.846 -18.989  18.948  1.00  0.00     0.136 C 
HETATM   48  O   UNL     1      18.373 -18.028  19.563  1.00  0.00    -0.297 OA
BRANCH  47  49
HETATM   49  C   UNL     1      17.948 -19.799  18.017  1.00  0.00     0.109 C 
BRANCH  49  50
HETATM   50  C   UNL     1      16.509 -19.848  18.557  1.00  0.00     0.279 C 
BRANCH  50  51
HETATM   51  N   UNL     1      16.317 -20.899  19.578  1.00  0.00     0.080 N 
HETATM   52  C   UNL     1      14.901 -21.167  19.830  1.00  0.00     0.309 C 
HETATM   53  C   UNL     1      16.976 -22.141  19.156  1.00  0.00     0.309 C 
ENDBRANCH  50  51
ENDBRANCH  49  50
ENDBRANCH  47  49
ENDBRANCH  44  47
ENDBRANCH  43  44
ENDBRANCH  41  43
BRANCH  41  54
HETATM   54  C   UNL     1      21.809 -19.149  16.168  1.00  0.00     0.137 C 
HETATM   55  O   UNL     1      22.880 -19.741  16.244  1.00  0.00    -0.297 OA
BRANCH  54  56
HETATM   56  C   UNL     1      20.873 -19.448  15.014  1.00  0.00     0.109 C 
BRANCH  56  57
HETATM   57  C   UNL     1      20.148 -20.785  15.166  1.00  0.00     0.279 C 
BRANCH  57  58
HETATM   58  N   UNL     1      21.083 -21.882  14.837  1.00  0.00     0.080 N 
HETATM   59  C   UNL     1      20.447 -23.188  15.027  1.00  0.00     0.309 C 
HETATM   60  C   UNL     1      21.583 -21.767  13.471  1.00  0.00     0.309 C 
ENDBRANCH  57  58
ENDBRANCH  56  57
ENDBRANCH  54  56
ENDBRANCH  41  54
ENDBRANCH  40  41
ENDBRANCH  38  40
BRANCH  38  61
HETATM   61  C   UNL     1      20.459 -15.030  17.814  1.00  0.00     0.137 C 
HETATM   62  O   UNL     1      21.420 -14.300  17.546  1.00  0.00    -0.297 OA
BRANCH  61  63
HETATM   63  C   UNL     1      20.095 -15.229  19.265  1.00  0.00     0.109 C 
BRANCH  63  64
HETATM   64  C   UNL     1      21.269 -15.033  20.236  1.00  0.00     0.279 C 
BRANCH  64  65
HETATM   65  N   UNL     1      20.805 -14.878  21.631  1.00  0.00     0.080 N 
HETATM   66  C   UNL     1      20.295 -16.142  22.169  1.00  0.00     0.309 C 
HETATM   67  C   UNL     1      21.905 -14.401  22.476  1.00  0.00     0.309 C 
ENDBRANCH  64  65
ENDBRANCH  63  64
ENDBRANCH  61  63
ENDBRANCH  38  61
ENDBRANCH  37  38
ENDBRANCH  35  37
BRANCH  35  68
HETATM   68  C   UNL     1      15.869 -15.139  18.035  1.00  0.00     0.137 C 
HETATM   69  O   UNL     1      15.626 -16.348  18.134  1.00  0.00    -0.297 OA
BRANCH  68  70
HETATM   70  C   UNL     1      15.125 -14.151  18.945  1.00  0.00     0.109 C 
BRANCH  70  71
HETATM   71  C   UNL     1      15.324 -14.457  20.450  1.00  0.00     0.279 C 
BRANCH  71  72
HETATM   72  N   UNL     1      16.679 -14.743  20.964  1.00  0.00     0.080 N 
HETATM   73  C   UNL     1      17.384 -13.554  21.414  1.00  0.00     0.309 C 
HETATM   74  C   UNL     1      16.579 -15.675  22.098  1.00  0.00     0.309 C 
ENDBRANCH  71  72
ENDBRANCH  70  71
ENDBRANCH  68  70
ENDBRANCH  35  68
ENDBRANCH  34  35
ENDBRANCH  32  34
BRANCH  32  75
HETATM   75  C   UNL     1      13.916 -13.748  15.702  1.00  0.00     0.138 C 
HETATM   76  O   UNL     1      12.872 -14.216  16.177  1.00  0.00    -0.297 OA
BRANCH  75  77
HETATM   77  C   UNL     1      14.145 -12.257  15.808  1.00  0.00     0.109 C 
BRANCH  77  78
HETATM   78  C   UNL     1      13.239 -11.690  16.885  1.00  0.00     0.279 C 
BRANCH  78  79
HETATM   79  N   UNL     1      13.613 -10.351  17.363  1.00  0.00     0.080 N 
HETATM   80  C   UNL     1      15.025 -10.297  17.744  1.00  0.00     0.309 C 
HETATM   81  C   UNL     1      12.779  -9.981  18.512  1.00  0.00     0.309 C 
ENDBRANCH  78  79
ENDBRANCH  77  78
ENDBRANCH  75  77
ENDBRANCH  32  75
ENDBRANCH  31  32
ENDBRANCH  29  31
ENDBRANCH  23  29
ENDBRANCH  17  18
ENDBRANCH  11  17
BRANCH  12  82
HETATM   82  O   UNL     1      16.004 -22.406  15.753  1.00  0.00    -0.391 OA
HETATM   83  H   UNL     1      15.884 -22.746  14.842  1.00  0.00     0.210 HD
ENDBRANCH  12  82
BRANCH  13  84
HETATM   84  N   UNL     1      14.553 -24.584  16.959  1.00  0.00     0.090 N 
HETATM   85  H   UNL     1      15.525 -24.579  16.630  1.00  0.00     0.313 HD
HETATM   86  H   UNL     1      14.196 -25.496  16.644  1.00  0.00     0.313 HD
ENDBRANCH  13  84
ENDBRANCH   7   8
ENDBRANCH   1   7
BRANCH   2  87
HETATM   87  C   UNL     1      10.706 -26.294  14.359  1.00  0.00     0.198 C 
BRANCH  87  88
HETATM   88  O   UNL     1       9.421 -25.691  14.304  1.00  0.00    -0.398 OA
HETATM   89  H   UNL     1       9.518 -24.803  13.918  1.00  0.00     0.209 HD
ENDBRANCH  87  88
ENDBRANCH   2  87
BRANCH   3  90
HETATM   90  O   UNL     1      14.208 -25.298  11.672  1.00  0.00    -0.391 OA
HETATM   91  H   UNL     1      14.893 -25.613  11.046  1.00  0.00     0.210 HD
ENDBRANCH   3  90
BRANCH   4  92
HETATM   92  N   UNL     1      13.130 -27.515  10.151  1.00  0.00     0.090 N 
HETATM   93  H   UNL     1      13.633 -26.720   9.749  1.00  0.00     0.313 HD
HETATM   94  H   UNL     1      12.311 -27.599   9.534  1.00  0.00     0.313 HD
ENDBRANCH   4  92
BRANCH   5  95
HETATM   95  O   UNL     1      11.134 -25.702  10.082  1.00  0.00    -0.348 OA
BRANCH  95  96
HETATM   96  C   UNL     1       9.974 -26.181   9.340  1.00  0.00     0.186 C 
HETATM   97  C   UNL     1       9.424 -27.471   9.974  1.00  0.00     0.180 C 
HETATM   98  O   UNL     1       8.048 -27.374  10.336  1.00  0.00    -0.349 OA
HETATM   99  C   UNL     1       7.151 -26.821   9.376  1.00  0.00     0.286 C 
HETATM  100  C   UNL     1       7.515 -25.367   8.839  1.00  0.00     0.167 C 
HETATM  101  C   UNL     1       8.918 -25.035   9.427  1.00  0.00     0.177 C 
BRANCH  97 102
HETATM  102  C   UNL     1       9.621 -28.720   9.101  1.00  0.00     0.198 C 
BRANCH 102 103
HETATM  103  O   UNL     1      10.961 -29.197   9.211  1.00  0.00    -0.398 OA
HETATM  104  H   UNL     1      11.207 -29.178  10.158  1.00  0.00     0.209 HD
ENDBRANCH 102 103
ENDBRANCH  97 102
BRANCH  99 105
HETATM  105  O   UNL     1       5.904 -26.790  10.070  1.00  0.00    -0.348 OA
BRANCH 105 106
HETATM  106  C   UNL     1       5.206 -28.024  10.134  1.00  0.00     0.186 C 
HETATM  107  C   UNL     1       4.774 -28.312  11.586  1.00  0.00     0.176 C 
HETATM  108  O   UNL     1       3.520 -29.032  11.657  1.00  0.00    -0.379 OA
HETATM  109  C   UNL     1       3.344 -29.978  10.598  1.00  0.00     0.206 C 
HETATM  110  C   UNL     1       3.234 -29.283   9.223  1.00  0.00     0.272 C 
HETATM  111  C   UNL     1       3.954 -27.917   9.243  1.00  0.00     0.184 C 
BRANCH 107 112
HETATM  112  C   UNL     1       5.832 -29.079  12.388  1.00  0.00     0.198 C 
BRANCH 112 113
HETATM  113  O   UNL     1       6.280 -28.286  13.486  1.00  0.00    -0.398 OA
HETATM  114  H   UNL     1       5.623 -28.409  14.199  1.00  0.00     0.209 HD
ENDBRANCH 112 113
ENDBRANCH 107 112
BRANCH 110 115
HETATM  115  N   UNL     1       1.830 -29.133   8.795  1.00  0.00     0.087 N 
HETATM  116  H   UNL     1       1.635 -28.134   8.691  1.00  0.00     0.313 HD
HETATM  117  H   UNL     1       1.239 -29.390   9.593  1.00  0.00     0.313 HD
ENDBRANCH 110 115
BRANCH 111 118
HETATM  118  O   UNL     1       3.053 -26.888   9.697  1.00  0.00    -0.391 OA
HETATM  119  H   UNL     1       2.416 -27.302  10.308  1.00  0.00     0.210 HD
ENDBRANCH 111 118
ENDBRANCH 105 106
ENDBRANCH  99 105
BRANCH 100 120
HETATM  120  N   UNL     1       6.422 -24.395   9.194  1.00  0.00    -0.389 N 
HETATM  121  H   UNL     1       5.819 -24.887   9.862  1.00  0.00     0.159 HD
BRANCH 120 122
HETATM  122  C   UNL     1       6.544 -22.938   9.341  1.00  0.00     0.073 C 
BRANCH 122 123
HETATM  123  C   UNL     1       5.848 -21.928   8.306  1.00  0.00     0.049 C 
HETATM  124  C   UNL     1       4.509 -21.537   8.953  1.00  0.00     0.029 C 
BRANCH 123 125
HETATM  125  C   UNL     1       5.623 -22.342   6.733  1.00  0.00     0.039 C 
BRANCH 125 126
HETATM  126  C   UNL     1       4.289 -23.172   6.186  1.00  0.00     0.019 C 
HETATM  127  C   UNL     1       4.557 -23.187   4.656  1.00  0.00     0.023 C 
BRANCH 126 128
HETATM  128  C   UNL     1       4.071 -24.633   6.689  1.00  0.00     0.137 C 
HETATM  129  O   UNL     1       3.800 -24.805   7.884  1.00  0.00    -0.297 OA
BRANCH 128 130
HETATM  130  C   UNL     1       4.212 -25.853   5.758  1.00  0.00     0.109 C 
BRANCH 130 131
HETATM  131  C   UNL     1       5.447 -26.724   6.082  1.00  0.00     0.279 C 
BRANCH 131 132
HETATM  132  N   UNL     1       6.539 -26.842   5.095  1.00  0.00     0.080 N 
HETATM  133  C   UNL     1       7.355 -25.621   5.134  1.00  0.00     0.309 C 
HETATM  134  C   UNL     1       6.066 -27.033   3.735  1.00  0.00     0.309 C 
ENDBRANCH 131 132
ENDBRANCH 130 131
ENDBRANCH 128 130
ENDBRANCH 126 128
BRANCH 126 135
HETATM  135  C   UNL     1       2.864 -22.416   6.494  1.00  0.00     0.033 C 
BRANCH 135 136
HETATM  136  C   UNL     1       2.325 -20.964   5.863  1.00  0.00     0.019 C 
HETATM  137  C   UNL     1       1.601 -20.181   6.972  1.00  0.00     0.023 C 
BRANCH 136 138
HETATM  138  C   UNL     1       3.371 -19.990   5.247  1.00  0.00     0.137 C 
HETATM  139  O   UNL     1       4.070 -19.292   5.991  1.00  0.00    -0.297 OA
BRANCH 138 140
HETATM  140  C   UNL     1       3.579 -19.874   3.757  1.00  0.00     0.109 C 
BRANCH 140 141
HETATM  141  C   UNL     1       4.936 -19.280   3.342  1.00  0.00     0.279 C 
BRANCH 141 142
HETATM  142  N   UNL     1       5.285 -19.620   1.946  1.00  0.00     0.080 N 
HETATM  143  C   UNL     1       4.437 -18.870   1.014  1.00  0.00     0.309 C 
HETATM  144  C   UNL     1       5.136 -21.054   1.687  1.00  0.00     0.309 C 
ENDBRANCH 141 142
ENDBRANCH 140 141
ENDBRANCH 138 140
ENDBRANCH 136 138
BRANCH 136 145
HETATM  145  C   UNL     1       1.268 -21.315   4.703  1.00  0.00     0.033 C 
BRANCH 145 146
HETATM  146  C   UNL     1      -0.278 -20.802   4.477  1.00  0.00     0.019 C 
HETATM  147  C   UNL     1      -0.818 -21.688   3.321  1.00  0.00     0.023 C 
BRANCH 146 148
HETATM  148  C   UNL     1      -1.281 -20.870   5.686  1.00  0.00     0.033 C 
BRANCH 148 149
HETATM  149  C   UNL     1      -1.976 -22.166   6.270  1.00  0.00     0.014 C 
HETATM  150  C   UNL     1      -3.048 -22.596   5.228  1.00  0.00     0.023 C 
HETATM  151  C   UNL     1      -2.779 -21.935   7.567  1.00  0.00     0.023 C 
BRANCH 149 152
HETATM  152  C   UNL     1      -0.976 -23.323   6.525  1.00  0.00     0.136 C 
HETATM  153  O   UNL     1      -0.178 -23.252   7.464  1.00  0.00    -0.297 OA
BRANCH 152 154
HETATM  154  C   UNL     1      -0.900 -24.510   5.567  1.00  0.00     0.109 C 
BRANCH 154 155
HETATM  155  C   UNL     1      -1.675 -25.716   6.124  1.00  0.00     0.279 C 
BRANCH 155 156
HETATM  156  N   UNL     1      -0.788 -26.762   6.679  1.00  0.00     0.080 N 
HETATM  157  C   UNL     1       0.586 -26.634   6.191  1.00  0.00     0.309 C 
HETATM  158  C   UNL     1      -0.787 -26.698   8.146  1.00  0.00     0.309 C 
ENDBRANCH 155 156
ENDBRANCH 154 155
ENDBRANCH 152 154
ENDBRANCH 149 152
ENDBRANCH 148 149
ENDBRANCH 146 148
BRANCH 146 159
HETATM  159  C   UNL     1      -0.199 -19.352   3.900  1.00  0.00     0.137 C 
HETATM  160  O   UNL     1      -0.665 -18.386   4.513  1.00  0.00    -0.297 OA
BRANCH 159 161
HETATM  161  C   UNL     1       0.283 -19.165   2.478  1.00  0.00     0.109 C 
BRANCH 161 162
HETATM  162  C   UNL     1      -0.025 -17.778   1.910  1.00  0.00     0.279 C 
BRANCH 162 163
HETATM  163  N   UNL     1      -0.359 -17.907   0.475  1.00  0.00     0.080 N 
HETATM  164  C   UNL     1       0.729 -18.526  -0.277  1.00  0.00     0.309 C 
HETATM  165  C   UNL     1      -0.687 -16.604  -0.107  1.00  0.00     0.309 C 
ENDBRANCH 162 163
ENDBRANCH 161 162
ENDBRANCH 159 161
ENDBRANCH 146 159
ENDBRANCH 145 146
ENDBRANCH 136 145
ENDBRANCH 135 136
ENDBRANCH 126 135
ENDBRANCH 125 126
ENDBRANCH 123 125
BRANCH 123 166
HETATM  166  C   UNL     1       6.943 -20.824   8.263  1.00  0.00     0.141 C 
HETATM  167  O   UNL     1       6.675 -19.658   7.947  1.00  0.00    -0.297 OA
BRANCH 166 168
HETATM  168  C   UNL     1       8.391 -21.184   8.490  1.00  0.00     0.110 C 
BRANCH 168 169
HETATM  169  C   UNL     1       9.144 -19.960   8.960  1.00  0.00     0.279 C 
BRANCH 169 170
HETATM  170  N   UNL     1       9.859 -20.110  10.236  1.00  0.00     0.080 N 
HETATM  171  C   UNL     1      10.281 -21.496  10.443  1.00  0.00     0.309 C 
HETATM  172  C   UNL     1       8.977 -19.714  11.338  1.00  0.00     0.309 C 
ENDBRANCH 169 170
ENDBRANCH 168 169
ENDBRANCH 166 168
ENDBRANCH 123 166
ENDBRANCH 122 123
ENDBRANCH 120 122
ENDBRANCH 100 120
BRANCH 101 173
HETATM  173  O   UNL     1       8.770 -24.654  10.812  1.00  0.00    -0.391 OA
HETATM  174  H   UNL     1       9.296 -23.838  10.929  1.00  0.00     0.210 HD
ENDBRANCH 101 173
ENDBRANCH  95  96
ENDBRANCH   5  95
TORSDOF 88
ENDMDL
MODEL 2
REMARK VINA RESULT:      -4.5     13.349     22.356
REMARK WARNING: 32 MAX_TORS EXCEEDED!!!
REMARK  88 active torsions:
REMARK  status: ('A' for Active; 'I' for Inactive)
REMARK    1  A    between atoms: C_1  and  O_28 
REMARK    2  A    between atoms: C_2  and  C_6 
REMARK    3  A    between atoms: C_3  and  O_8 
REMARK    4  A    between atoms: C_4  and  N_10 
REMARK    5  A    between atoms: C_5  and  O_11 
REMARK    6  A    between atoms: C_6  and  O_65 
REMARK    7  A    between atoms: O_11  and  C_18 
REMARK    8  A    between atoms: O_13  and  C_16 
REMARK    9  A    between atoms: C_15  and  C_21 
REMARK   10  A    between atoms: O_17  and  C_20 
REMARK   11  A    between atoms: O_17  and  C_39 
REMARK   12  A    between atoms: N_19  and  C_22 
REMARK   13  A    between atoms: N_19  and  C_161 
REMARK   14  A    between atoms: C_21  and  O_67 
REMARK   15  A    between atoms: O_24  and  C_27 
REMARK   16  A    between atoms: C_26  and  C_32 
REMARK   17  A    between atoms: O_28  and  C_31 
REMARK   18  A    between atoms: C_29  and  O_49 
REMARK   19  A    between atoms: N_30  and  C_33 
REMARK   20  A    between atoms: C_32  and  O_63 
REMARK   21  A    between atoms: O_35  and  C_38 
REMARK   22  A    between atoms: C_37  and  C_42 
REMARK   23  A    between atoms: N_40  and  C_43 
REMARK   24  A    between atoms: C_42  and  O_69 
REMARK   25  A    between atoms: O_45  and  C_48 
REMARK   26  A    between atoms: C_47  and  C_53 
REMARK   27  A    between atoms: O_49  and  C_52 
REMARK   28  A    between atoms: N_51  and  C_54 
REMARK   29  A    between atoms: N_51  and  C_71 
REMARK   30  A    between atoms: C_53  and  O_61 
REMARK   31  A    between atoms: C_71  and  C_73 
REMARK   32  A    between atoms: C_73  and  C_74 
REMARK   33  A    between atoms: C_73  and  C_83 
REMARK   34  A    between atoms: C_74  and  C_75 
REMARK   35  A    between atoms: C_75  and  C_76 
REMARK   36  A    between atoms: C_75  and  C_87 
REMARK   37  A    between atoms: C_76  and  C_77 
REMARK   38  A    between atoms: C_77  and  C_78 
REMARK   39  A    between atoms: C_77  and  C_91 
REMARK   40  A    between atoms: C_78  and  C_79 
REMARK   41  A    between atoms: C_79  and  C_80 
REMARK   42  A    between atoms: C_79  and  C_95 
REMARK   43  A    between atoms: C_80  and  C_81 
REMARK   44  A    between atoms: C_81  and  C_99 
REMARK   45  A    between atoms: C_83  and  C_84 
REMARK   46  A    between atoms: C_84  and  C_85 
REMARK   47  A    between atoms: C_85  and  N_103 
REMARK   48  A    between atoms: C_87  and  C_88 
REMARK   49  A    between atoms: C_88  and  C_89 
REMARK   50  A    between atoms: C_89  and  N_104 
REMARK   51  A    between atoms: C_91  and  C_92 
REMARK   52  A    between atoms: C_92  and  C_93 
REMARK   53  A    between atoms: C_93  and  N_105 
REMARK   54  A    between atoms: C_95  and  C_96 
REMARK   55  A    between atoms: C_96  and  C_97 
REMARK   56  A    between atoms: C_97  and  N_106 
REMARK   57  A    between atoms: C_99  and  C_100 
REMARK   58  A    between atoms: C_100  and  C_101 
REMARK   59  A    between atoms: C_101  and  N_107 
REMARK   60  A    between atoms: N_126  and  C_129 
REMARK   61  A    between atoms: C_129  and  C_135 
REMARK   62  A    between atoms: C_130  and  C_135 
REMARK   63  A    between atoms: C_130  and  C_142 
REMARK   64  A    between atoms: N_132  and  C_139 
REMARK   65  A    between atoms: C_136  and  C_137 
REMARK   66  A    between atoms: C_136  and  C_146 
REMARK   67  A    between atoms: C_137  and  C_139 
REMARK   68  A    between atoms: N_141  and  C_152 
REMARK   69  A    between atoms: C_142  and  C_153 
REMARK   70  A    between atoms: C_142  and  C_159 
REMARK   71  A    between atoms: C_144  and  C_152 
REMARK   72  A    between atoms: C_144  and  C_156 
REMARK   73  A    between atoms: C_146  and  C_162 
REMARK   74  A    between atoms: C_146  and  C_153 
REMARK   75  A    between atoms: C_148  and  C_156 
REMARK   76  A    between atoms: C_148  and  C_149 
REMARK   77  A    between atoms: C_149  and  C_163 
REMARK   78  A    between atoms: C_150  and  C_161 
REMARK   79  A    between atoms: C_150  and  C_159 
REMARK   80  A    between atoms: C_150  and  C_160 
REMARK   81  A    between atoms: C_151  and  N_157 
REMARK   82  A    between atoms: C_151  and  C_154 
REMARK   83  A    between atoms: C_154  and  C_160 
REMARK   84  A    between atoms: C_162  and  C_163 
REMARK   85  A    between atoms: C_163  and  C_169 
REMARK   86  A    between atoms: C_166  and  C_171 
REMARK   87  A    between atoms: C_166  and  C_169 
REMARK   88  A    between atoms: N_167  and  C_171 
ROOT
HETATM    1  C   UNL     1       4.943 -20.054   0.657  1.00  0.00     0.186 C 
HETATM    2  C   UNL     1       4.257 -18.670   0.647  1.00  0.00     0.179 C 
HETATM    3  C   UNL     1       6.048 -20.127  -0.416  1.00  0.00     0.187 C 
HETATM    4  C   UNL     1       5.575 -19.533  -1.765  1.00  0.00     0.303 C 
HETATM    5  C   UNL     1       5.037 -18.072  -1.573  1.00  0.00     0.296 C 
HETATM    6  O   UNL     1       4.958 -17.728  -0.186  1.00  0.00    -0.349 OA
ENDROOT
BRANCH   1   7
HETATM    7  O   UNL     1       5.526 -20.258   1.952  1.00  0.00    -0.348 OA
BRANCH   7   8
HETATM    8  C   UNL     1       4.791 -21.136   2.818  1.00  0.00     0.296 C 
HETATM    9  O   UNL     1       3.480 -21.241   2.271  1.00  0.00    -0.349 OA
HETATM   10  C   UNL     1       2.474 -21.847   3.100  1.00  0.00     0.179 C 
HETATM   11  C   UNL     1       2.521 -21.436   4.586  1.00  0.00     0.186 C 
HETATM   12  C   UNL     1       3.452 -20.253   4.821  1.00  0.00     0.187 C 
HETATM   13  C   UNL     1       4.847 -20.595   4.288  1.00  0.00     0.303 C 
BRANCH  10  14
HETATM   14  C   UNL     1       2.551 -23.372   2.920  1.00  0.00     0.198 C 
BRANCH  14  15
HETATM   15  O   UNL     1       1.413 -24.002   3.507  1.00  0.00    -0.398 OA
HETATM   16  H   UNL     1       0.872 -24.347   2.770  1.00  0.00     0.209 HD
ENDBRANCH  14  15
ENDBRANCH  10  14
BRANCH  11  17
HETATM   17  O   UNL     1       1.213 -21.021   5.012  1.00  0.00    -0.348 OA
BRANCH  17  18
HETATM   18  C   UNL     1       0.634 -21.888   5.981  1.00  0.00     0.296 C 
HETATM   19  O   UNL     1       1.451 -23.059   6.100  1.00  0.00    -0.351 OA
HETATM   20  C   UNL     1       1.208 -23.774   7.328  1.00  0.00     0.150 C 
HETATM   21  C   UNL     1      -0.278 -23.692   7.726  1.00  0.00     0.068 C 
HETATM   22  C   UNL     1      -1.146 -23.594   6.462  1.00  0.00     0.158 C 
HETATM   23  C   UNL     1      -0.856 -22.295   5.636  1.00  0.00     0.303 C 
BRANCH  20  24
HETATM   24  C   UNL     1       2.201 -23.340   8.416  1.00  0.00     0.196 C 
BRANCH  24  25
HETATM   25  O   UNL     1       1.803 -22.119   9.034  1.00  0.00    -0.398 OA
HETATM   26  H   UNL     1       0.836 -22.173   9.150  1.00  0.00     0.209 HD
ENDBRANCH  24  25
ENDBRANCH  20  24
BRANCH  22  27
HETATM   27  O   UNL     1      -0.861 -24.757   5.666  1.00  0.00    -0.393 OA
HETATM   28  H   UNL     1      -0.021 -25.136   5.993  1.00  0.00     0.210 HD
ENDBRANCH  22  27
BRANCH  23  29
HETATM   29  N   UNL     1      -1.093 -22.510   4.173  1.00  0.00     0.096 N 
HETATM   30  H   UNL     1      -0.943 -23.506   4.016  1.00  0.00     0.316 HD
BRANCH  29  31
HETATM   31  C   UNL     1      -2.402 -22.087   3.606  1.00  0.00     0.287 C 
BRANCH  31  32
HETATM   32  C   UNL     1      -3.271 -23.270   2.935  1.00  0.00     0.044 C 
HETATM   33  C   UNL     1      -4.289 -22.654   1.963  1.00  0.00     0.025 C 
BRANCH  32  34
HETATM   34  C   UNL     1      -4.006 -24.207   4.038  1.00  0.00     0.035 C 
BRANCH  34  35
HETATM   35  C   UNL     1      -5.179 -23.717   5.058  1.00  0.00     0.019 C 
HETATM   36  C   UNL     1      -6.195 -24.890   5.017  1.00  0.00     0.023 C 
BRANCH  35  37
HETATM   37  C   UNL     1      -5.852 -22.361   4.474  1.00  0.00     0.033 C 
BRANCH  37  38
HETATM   38  C   UNL     1      -7.337 -21.736   4.786  1.00  0.00     0.019 C 
HETATM   39  C   UNL     1      -8.397 -22.499   3.973  1.00  0.00     0.023 C 
BRANCH  38  40
HETATM   40  C   UNL     1      -7.273 -20.216   4.281  1.00  0.00     0.033 C 
BRANCH  40  41
HETATM   41  C   UNL     1      -8.463 -19.186   3.867  1.00  0.00     0.019 C 
HETATM   42  C   UNL     1      -7.760 -17.806   3.750  1.00  0.00     0.023 C 
BRANCH  41  43
HETATM   43  C   UNL     1      -9.257 -19.477   2.550  1.00  0.00     0.033 C 
BRANCH  43  44
HETATM   44  C   UNL     1      -8.644 -19.820   1.138  1.00  0.00     0.014 C 
HETATM   45  C   UNL     1      -9.521 -20.959   0.546  1.00  0.00     0.023 C 
HETATM   46  C   UNL     1      -7.224 -20.416   1.185  1.00  0.00     0.023 C 
BRANCH  44  47
HETATM   47  C   UNL     1      -8.626 -18.597   0.189  1.00  0.00     0.136 C 
HETATM   48  O   UNL     1      -8.789 -17.461   0.646  1.00  0.00    -0.297 OA
BRANCH  47  49
HETATM   49  C   UNL     1      -8.507 -18.788  -1.320  1.00  0.00     0.109 C 
BRANCH  49  50
HETATM   50  C   UNL     1      -7.843 -17.565  -1.973  1.00  0.00     0.279 C 
BRANCH  50  51
HETATM   51  N   UNL     1      -6.627 -17.915  -2.737  1.00  0.00     0.080 N 
HETATM   52  C   UNL     1      -5.626 -16.848  -2.694  1.00  0.00     0.309 C 
HETATM   53  C   UNL     1      -6.036 -19.151  -2.211  1.00  0.00     0.309 C 
ENDBRANCH  50  51
ENDBRANCH  49  50
ENDBRANCH  47  49
ENDBRANCH  44  47
ENDBRANCH  43  44
ENDBRANCH  41  43
BRANCH  41  54
HETATM   54  C   UNL     1      -9.417 -19.072   5.101  1.00  0.00     0.137 C 
HETATM   55  O   UNL     1     -10.531 -19.584   5.103  1.00  0.00    -0.297 OA
BRANCH  54  56
HETATM   56  C   UNL     1      -9.023 -18.141   6.230  1.00  0.00     0.109 C 
BRANCH  56  57
HETATM   57  C   UNL     1      -9.675 -18.512   7.563  1.00  0.00     0.279 C 
BRANCH  57  58
HETATM   58  N   UNL     1     -10.471 -17.364   8.046  1.00  0.00     0.080 N 
HETATM   59  C   UNL     1     -10.123 -16.141   7.318  1.00  0.00     0.309 C 
HETATM   60  C   UNL     1     -11.903 -17.619   7.932  1.00  0.00     0.309 C 
ENDBRANCH  57  58
ENDBRANCH  56  57
ENDBRANCH  54  56
ENDBRANCH  41  54
ENDBRANCH  40  41
ENDBRANCH  38  40
BRANCH  38  61
HETATM   61  C   UNL     1      -7.825 -21.743   6.260  1.00  0.00     0.137 C 
HETATM   62  O   UNL     1      -7.215 -21.084   7.109  1.00  0.00    -0.297 OA
BRANCH  61  63
HETATM   63  C   UNL     1      -9.051 -22.509   6.693  1.00  0.00     0.109 C 
BRANCH  63  64
HETATM   64  C   UNL     1      -8.739 -23.794   7.474  1.00  0.00     0.279 C 
BRANCH  64  65
HETATM   65  N   UNL     1      -9.654 -23.972   8.622  1.00  0.00     0.080 N 
HETATM   66  C   UNL     1     -11.048 -24.079   8.184  1.00  0.00     0.309 C 
HETATM   67  C   UNL     1      -9.289 -25.177   9.373  1.00  0.00     0.309 C 
ENDBRANCH  64  65
ENDBRANCH  63  64
ENDBRANCH  61  63
ENDBRANCH  38  61
ENDBRANCH  37  38
ENDBRANCH  35  37
BRANCH  35  68
HETATM   68  C   UNL     1      -4.811 -23.426   6.544  1.00  0.00     0.137 C 
HETATM   69  O   UNL     1      -4.235 -22.364   6.810  1.00  0.00    -0.297 OA
BRANCH  68  70
HETATM   70  C   UNL     1      -5.107 -24.420   7.677  1.00  0.00     0.109 C 
BRANCH  70  71
HETATM   71  C   UNL     1      -3.892 -25.316   8.019  1.00  0.00     0.279 C 
BRANCH  71  72
HETATM   72  N   UNL     1      -4.113 -26.711   8.453  1.00  0.00     0.080 N 
HETATM   73  C   UNL     1      -5.177 -26.843   9.435  1.00  0.00     0.309 C 
HETATM   74  C   UNL     1      -4.461 -27.532   7.284  1.00  0.00     0.309 C 
ENDBRANCH  71  72
ENDBRANCH  70  71
ENDBRANCH  68  70
ENDBRANCH  35  68
ENDBRANCH  34  35
ENDBRANCH  32  34
BRANCH  32  75
HETATM   75  C   UNL     1      -2.196 -24.161   2.263  1.00  0.00     0.138 C 
HETATM   76  O   UNL     1      -1.541 -24.970   2.934  1.00  0.00    -0.297 OA
BRANCH  75  77
HETATM   77  C   UNL     1      -1.820 -23.966   0.810  1.00  0.00     0.109 C 
BRANCH  77  78
HETATM   78  C   UNL     1      -0.425 -23.371   0.733  1.00  0.00     0.279 C 
BRANCH  78  79
HETATM   79  N   UNL     1      -0.304 -22.200  -0.148  1.00  0.00     0.080 N 
HETATM   80  C   UNL     1       1.070 -22.028  -0.618  1.00  0.00     0.309 C 
HETATM   81  C   UNL     1      -0.736 -20.993   0.566  1.00  0.00     0.309 C 
ENDBRANCH  78  79
ENDBRANCH  77  78
ENDBRANCH  75  77
ENDBRANCH  32  75
ENDBRANCH  31  32
ENDBRANCH  29  31
ENDBRANCH  23  29
ENDBRANCH  17  18
ENDBRANCH  11  17
BRANCH  12  82
HETATM   82  O   UNL     1       2.930 -19.067   4.207  1.00  0.00    -0.391 OA
HETATM   83  H   UNL     1       2.123 -18.853   4.720  1.00  0.00     0.210 HD
ENDBRANCH  12  82
BRANCH  13  84
HETATM   84  N   UNL     1       5.766 -19.462   4.524  1.00  0.00     0.090 N 
HETATM   85  H   UNL     1       5.261 -18.819   5.145  1.00  0.00     0.313 HD
HETATM   86  H   UNL     1       5.857 -18.931   3.649  1.00  0.00     0.313 HD
ENDBRANCH  13  84
ENDBRANCH   7   8
ENDBRANCH   1   7
BRANCH   2  87
HETATM   87  C   UNL     1       2.768 -18.796   0.274  1.00  0.00     0.198 C 
BRANCH  87  88
HETATM   88  O   UNL     1       1.932 -18.740   1.422  1.00  0.00    -0.398 OA
HETATM   89  H   UNL     1       2.324 -18.112   2.054  1.00  0.00     0.209 HD
ENDBRANCH  87  88
ENDBRANCH   2  87
BRANCH   3  90
HETATM   90  O   UNL     1       7.238 -19.454   0.029  1.00  0.00    -0.391 OA
HETATM   91  H   UNL     1       7.396 -18.715  -0.596  1.00  0.00     0.210 HD
ENDBRANCH   3  90
BRANCH   4  92
HETATM   92  N   UNL     1       6.632 -19.633  -2.799  1.00  0.00     0.090 N 
HETATM   93  H   UNL     1       6.396 -19.017  -3.581  1.00  0.00     0.313 HD
HETATM   94  H   UNL     1       6.539 -20.570  -3.213  1.00  0.00     0.313 HD
ENDBRANCH   4  92
BRANCH   5  95
HETATM   95  O   UNL     1       5.919 -17.105  -2.182  1.00  0.00    -0.348 OA
BRANCH  95  96
HETATM   96  C   UNL     1       5.824 -15.737  -1.689  1.00  0.00     0.186 C 
HETATM   97  C   UNL     1       6.790 -14.819  -2.458  1.00  0.00     0.180 C 
HETATM   98  O   UNL     1       6.137 -13.707  -3.071  1.00  0.00    -0.349 OA
HETATM   99  C   UNL     1       5.208 -12.970  -2.278  1.00  0.00     0.286 C 
HETATM  100  C   UNL     1       4.020 -13.812  -1.633  1.00  0.00     0.167 C 
HETATM  101  C   UNL     1       4.345 -15.305  -1.934  1.00  0.00     0.177 C 
BRANCH  97 102
HETATM  102  C   UNL     1       7.959 -14.300  -1.607  1.00  0.00     0.198 C 
BRANCH 102 103
HETATM  103  O   UNL     1       7.641 -14.391  -0.219  1.00  0.00    -0.398 OA
HETATM  104  H   UNL     1       6.722 -14.717  -0.145  1.00  0.00     0.209 HD
ENDBRANCH 102 103
ENDBRANCH  97 102
BRANCH  99 105
HETATM  105  O   UNL     1       4.687 -12.008  -3.194  1.00  0.00    -0.348 OA
BRANCH 105 106
HETATM  106  C   UNL     1       4.982 -10.652  -2.894  1.00  0.00     0.186 C 
HETATM  107  C   UNL     1       5.505 -10.532  -1.448  1.00  0.00     0.176 C 
HETATM  108  O   UNL     1       6.480  -9.472  -1.299  1.00  0.00    -0.379 OA
HETATM  109  C   UNL     1       6.211  -8.330  -2.119  1.00  0.00     0.206 C 
HETATM  110  C   UNL     1       6.334  -8.665  -3.623  1.00  0.00     0.272 C 
HETATM  111  C   UNL     1       6.070 -10.167  -3.870  1.00  0.00     0.184 C 
BRANCH 107 112
HETATM  112  C   UNL     1       4.387 -10.326  -0.419  1.00  0.00     0.198 C 
BRANCH 112 113
HETATM  113  O   UNL     1       4.940  -9.882   0.820  1.00  0.00    -0.398 OA
HETATM  114  H   UNL     1       4.185  -9.604   1.373  1.00  0.00     0.209 HD
ENDBRANCH 112 113
ENDBRANCH 107 112
BRANCH 110 115
HETATM  115  N   UNL     1       7.644  -8.263  -4.169  1.00  0.00     0.087 N 
HETATM  116  H   UNL     1       7.662  -8.510  -5.162  1.00  0.00     0.313 HD
HETATM  117  H   UNL     1       8.347  -8.894  -3.772  1.00  0.00     0.313 HD
ENDBRANCH 110 115
BRANCH 111 118
HETATM  118  O   UNL     1       7.294 -10.915  -3.730  1.00  0.00    -0.391 OA
HETATM  119  H   UNL     1       7.280 -11.630  -4.392  1.00  0.00     0.210 HD
ENDBRANCH 111 118
ENDBRANCH 105 106
ENDBRANCH  99 105
BRANCH 100 120
HETATM  120  N   UNL     1       2.696 -13.322  -2.155  1.00  0.00    -0.389 N 
HETATM  121  H   UNL     1       2.620 -13.692  -3.109  1.00  0.00     0.159 HD
BRANCH 120 122
HETATM  122  C   UNL     1       1.451 -13.154  -1.395  1.00  0.00     0.073 C 
BRANCH 122 123
HETATM  123  C   UNL     1       0.017 -13.457  -2.051  1.00  0.00     0.049 C 
HETATM  124  C   UNL     1       0.202 -13.229  -3.561  1.00  0.00     0.029 C 
BRANCH 123 125
HETATM  125  C   UNL     1      -1.339 -12.699  -1.521  1.00  0.00     0.039 C 
BRANCH 125 126
HETATM  126  C   UNL     1      -1.329 -11.195  -0.809  1.00  0.00     0.019 C 
HETATM  127  C   UNL     1      -1.121 -11.575   0.683  1.00  0.00     0.023 C 
BRANCH 126 128
HETATM  128  C   UNL     1      -0.227 -10.180  -1.244  1.00  0.00     0.137 C 
HETATM  129  O   UNL     1       0.546  -9.751  -0.379  1.00  0.00    -0.297 OA
BRANCH 128 130
HETATM  130  C   UNL     1      -0.095  -9.682  -2.697  1.00  0.00     0.109 C 
BRANCH 130 131
HETATM  131  C   UNL     1       1.351  -9.766  -3.237  1.00  0.00     0.279 C 
BRANCH 131 132
HETATM  132  N   UNL     1       2.012  -8.549  -3.751  1.00  0.00     0.080 N 
HETATM  133  C   UNL     1       2.548  -7.780  -2.621  1.00  0.00     0.309 C 
HETATM  134  C   UNL     1       1.122  -7.688  -4.510  1.00  0.00     0.309 C 
ENDBRANCH 131 132
ENDBRANCH 130 131
ENDBRANCH 128 130
ENDBRANCH 126 128
BRANCH 126 135
HETATM  135  C   UNL     1      -2.738 -10.369  -0.982  1.00  0.00     0.033 C 
BRANCH 135 136
HETATM  136  C   UNL     1      -3.122  -8.867  -0.355  1.00  0.00     0.019 C 
HETATM  137  C   UNL     1      -2.621  -8.795   1.098  1.00  0.00     0.023 C 
BRANCH 136 138
HETATM  138  C   UNL     1      -2.572  -7.602  -1.074  1.00  0.00     0.137 C 
HETATM  139  O   UNL     1      -3.141  -7.178  -2.087  1.00  0.00    -0.297 OA
BRANCH 138 140
HETATM  140  C   UNL     1      -1.362  -6.854  -0.570  1.00  0.00     0.109 C 
BRANCH 140 141
HETATM  141  C   UNL     1      -0.606  -6.056  -1.646  1.00  0.00     0.279 C 
BRANCH 141 142
HETATM  142  N   UNL     1      -0.389  -4.650  -1.241  1.00  0.00     0.080 N 
HETATM  143  C   UNL     1      -1.325  -3.769  -1.948  1.00  0.00     0.309 C 
HETATM  144  C   UNL     1       0.982  -4.216  -1.515  1.00  0.00     0.309 C 
ENDBRANCH 141 142
ENDBRANCH 140 141
ENDBRANCH 138 140
ENDBRANCH 136 138
BRANCH 136 145
HETATM  145  C   UNL     1      -4.726  -8.750  -0.356  1.00  0.00     0.033 C 
BRANCH 145 146
HETATM  146  C   UNL     1      -5.763  -8.287   0.834  1.00  0.00     0.019 C 
HETATM  147  C   UNL     1      -6.181  -9.615   1.525  1.00  0.00     0.023 C 
BRANCH 146 148
HETATM  148  C   UNL     1      -5.255  -7.279   1.928  1.00  0.00     0.033 C 
BRANCH 148 149
HETATM  149  C   UNL     1      -5.715  -7.209   3.440  1.00  0.00     0.014 C 
HETATM  150  C   UNL     1      -4.879  -8.276   4.202  1.00  0.00     0.023 C 
HETATM  151  C   UNL     1      -7.180  -7.628   3.687  1.00  0.00     0.023 C 
BRANCH 149 152
HETATM  152  C   UNL     1      -5.504  -5.808   4.070  1.00  0.00     0.136 C 
HETATM  153  O   UNL     1      -5.556  -4.799   3.360  1.00  0.00    -0.297 OA
BRANCH 152 154
HETATM  154  C   UNL     1      -5.137  -5.667   5.546  1.00  0.00     0.109 C 
BRANCH 154 155
HETATM  155  C   UNL     1      -4.720  -4.223   5.873  1.00  0.00     0.279 C 
BRANCH 155 156
HETATM  156  N   UNL     1      -5.466  -3.656   7.018  1.00  0.00     0.080 N 
HETATM  157  C   UNL     1      -5.927  -2.292   6.755  1.00  0.00     0.309 C 
HETATM  158  C   UNL     1      -6.623  -4.502   7.337  1.00  0.00     0.309 C 
ENDBRANCH 155 156
ENDBRANCH 154 155
ENDBRANCH 152 154
ENDBRANCH 149 152
ENDBRANCH 148 149
ENDBRANCH 146 148
BRANCH 146 159
HETATM  159  C   UNL     1      -7.051  -7.748   0.135  1.00  0.00     0.137 C 
HETATM  160  O   UNL     1      -7.118  -6.592  -0.297  1.00  0.00    -0.297 OA
BRANCH 159 161
HETATM  161  C   UNL     1      -8.301  -8.600   0.165  1.00  0.00     0.109 C 
BRANCH 161 162
HETATM  162  C   UNL     1      -9.048  -8.631  -1.171  1.00  0.00     0.279 C 
BRANCH 162 163
HETATM  163  N   UNL     1      -9.348 -10.036  -1.523  1.00  0.00     0.080 N 
HETATM  164  C   UNL     1      -8.168 -10.887  -1.396  1.00  0.00     0.309 C 
HETATM  165  C   UNL     1      -9.886 -10.133  -2.882  1.00  0.00     0.309 C 
ENDBRANCH 162 163
ENDBRANCH 161 162
ENDBRANCH 159 161
ENDBRANCH 146 159
ENDBRANCH 145 146
ENDBRANCH 136 145
ENDBRANCH 135 136
ENDBRANCH 126 135
ENDBRANCH 125 126
ENDBRANCH 123 125
BRANCH 123 166
HETATM  166  C   UNL     1      -0.159 -14.933  -1.591  1.00  0.00     0.141 C 
HETATM  167  O   UNL     1       0.718 -15.516  -0.939  1.00  0.00    -0.297 OA
BRANCH 166 168
HETATM  168  C   UNL     1      -1.360 -15.729  -2.040  1.00  0.00     0.110 C 
BRANCH 168 169
HETATM  169  C   UNL     1      -0.961 -16.634  -3.184  1.00  0.00     0.279 C 
BRANCH 169 170
HETATM  170  N   UNL     1      -1.135 -18.073  -2.940  1.00  0.00     0.080 N 
HETATM  171  C   UNL     1      -2.203 -18.318  -1.971  1.00  0.00     0.309 C 
HETATM  172  C   UNL     1       0.116 -18.633  -2.418  1.00  0.00     0.309 C 
ENDBRANCH 169 170
ENDBRANCH 168 169
ENDBRANCH 166 168
ENDBRANCH 123 166
ENDBRANCH 122 123
ENDBRANCH 120 122
ENDBRANCH 100 120
BRANCH 101 173
HETATM  173  O   UNL     1       4.007 -15.592  -3.309  1.00  0.00    -0.391 OA
HETATM  174  H   UNL     1       4.120 -14.754  -3.800  1.00  0.00     0.210 HD
ENDBRANCH 101 173
ENDBRANCH  95  96
ENDBRANCH   5  95
TORSDOF 88
ENDMDL
MODEL 3
REMARK VINA RESULT:      -4.5     16.463     25.282
REMARK WARNING: 32 MAX_TORS EXCEEDED!!!
REMARK  88 active torsions:
REMARK  status: ('A' for Active; 'I' for Inactive)
REMARK    1  A    between atoms: C_1  and  O_28 
REMARK    2  A    between atoms: C_2  and  C_6 
REMARK    3  A    between atoms: C_3  and  O_8 
REMARK    4  A    between atoms: C_4  and  N_10 
REMARK    5  A    between atoms: C_5  and  O_11 
REMARK    6  A    between atoms: C_6  and  O_65 
REMARK    7  A    between atoms: O_11  and  C_18 
REMARK    8  A    between atoms: O_13  and  C_16 
REMARK    9  A    between atoms: C_15  and  C_21 
REMARK   10  A    between atoms: O_17  and  C_20 
REMARK   11  A    between atoms: O_17  and  C_39 
REMARK   12  A    between atoms: N_19  and  C_22 
REMARK   13  A    between atoms: N_19  and  C_161 
REMARK   14  A    between atoms: C_21  and  O_67 
REMARK   15  A    between atoms: O_24  and  C_27 
REMARK   16  A    between atoms: C_26  and  C_32 
REMARK   17  A    between atoms: O_28  and  C_31 
REMARK   18  A    between atoms: C_29  and  O_49 
REMARK   19  A    between atoms: N_30  and  C_33 
REMARK   20  A    between atoms: C_32  and  O_63 
REMARK   21  A    between atoms: O_35  and  C_38 
REMARK   22  A    between atoms: C_37  and  C_42 
REMARK   23  A    between atoms: N_40  and  C_43 
REMARK   24  A    between atoms: C_42  and  O_69 
REMARK   25  A    between atoms: O_45  and  C_48 
REMARK   26  A    between atoms: C_47  and  C_53 
REMARK   27  A    between atoms: O_49  and  C_52 
REMARK   28  A    between atoms: N_51  and  C_54 
REMARK   29  A    between atoms: N_51  and  C_71 
REMARK   30  A    between atoms: C_53  and  O_61 
REMARK   31  A    between atoms: C_71  and  C_73 
REMARK   32  A    between atoms: C_73  and  C_74 
REMARK   33  A    between atoms: C_73  and  C_83 
REMARK   34  A    between atoms: C_74  and  C_75 
REMARK   35  A    between atoms: C_75  and  C_76 
REMARK   36  A    between atoms: C_75  and  C_87 
REMARK   37  A    between atoms: C_76  and  C_77 
REMARK   38  A    between atoms: C_77  and  C_78 
REMARK   39  A    between atoms: C_77  and  C_91 
REMARK   40  A    between atoms: C_78  and  C_79 
REMARK   41  A    between atoms: C_79  and  C_80 
REMARK   42  A    between atoms: C_79  and  C_95 
REMARK   43  A    between atoms: C_80  and  C_81 
REMARK   44  A    between atoms: C_81  and  C_99 
REMARK   45  A    between atoms: C_83  and  C_84 
REMARK   46  A    between atoms: C_84  and  C_85 
REMARK   47  A    between atoms: C_85  and  N_103 
REMARK   48  A    between atoms: C_87  and  C_88 
REMARK   49  A    between atoms: C_88  and  C_89 
REMARK   50  A    between atoms: C_89  and  N_104 
REMARK   51  A    between atoms: C_91  and  C_92 
REMARK   52  A    between atoms: C_92  and  C_93 
REMARK   53  A    between atoms: C_93  and  N_105 
REMARK   54  A    between atoms: C_95  and  C_96 
REMARK   55  A    between atoms: C_96  and  C_97 
REMARK   56  A    between atoms: C_97  and  N_106 
REMARK   57  A    between atoms: C_99  and  C_100 
REMARK   58  A    between atoms: C_100  and  C_101 
REMARK   59  A    between atoms: C_101  and  N_107 
REMARK   60  A    between atoms: N_126  and  C_129 
REMARK   61  A    between atoms: C_129  and  C_135 
REMARK   62  A    between atoms: C_130  and  C_135 
REMARK   63  A    between atoms: C_130  and  C_142 
REMARK   64  A    between atoms: N_132  and  C_139 
REMARK   65  A    between atoms: C_136  and  C_137 
REMARK   66  A    between atoms: C_136  and  C_146 
REMARK   67  A    between atoms: C_137  and  C_139 
REMARK   68  A    between atoms: N_141  and  C_152 
REMARK   69  A    between atoms: C_142  and  C_153 
REMARK   70  A    between atoms: C_142  and  C_159 
REMARK   71  A    between atoms: C_144  and  C_152 
REMARK   72  A    between atoms: C_144  and  C_156 
REMARK   73  A    between atoms: C_146  and  C_162 
REMARK   74  A    between atoms: C_146  and  C_153 
REMARK   75  A    between atoms: C_148  and  C_156 
REMARK   76  A    between atoms: C_148  and  C_149 
REMARK   77  A    between atoms: C_149  and  C_163 
REMARK   78  A    between atoms: C_150  and  C_161 
REMARK   79  A    between atoms: C_150  and  C_159 
REMARK   80  A    between atoms: C_150  and  C_160 
REMARK   81  A    between atoms: C_151  and  N_157 
REMARK   82  A    between atoms: C_151  and  C_154 
REMARK   83  A    between atoms: C_154  and  C_160 
REMARK   84  A    between atoms: C_162  and  C_163 
REMARK   85  A    between atoms: C_163  and  C_169 
REMARK   86  A    between atoms: C_166  and  C_171 
REMARK   87  A    between atoms: C_166  and  C_169 
REMARK   88  A    between atoms: N_167  and  C_171 
ROOT
HETATM    1  C   UNL     1      -2.791 -10.799  -0.774  1.00  0.00     0.186 C 
HETATM    2  C   UNL     1      -2.694  -9.449  -0.028  1.00  0.00     0.179 C 
HETATM    3  C   UNL     1      -4.175 -10.963  -1.434  1.00  0.00     0.187 C 
HETATM    4  C   UNL     1      -5.318 -10.551  -0.475  1.00  0.00     0.303 C 
HETATM    5  C   UNL     1      -5.094  -9.097   0.068  1.00  0.00     0.296 C 
HETATM    6  O   UNL     1      -3.812  -8.591  -0.320  1.00  0.00    -0.349 OA
ENDROOT
BRANCH   1   7
HETATM    7  O   UNL     1      -1.777 -10.826  -1.788  1.00  0.00    -0.348 OA
BRANCH   7   8
HETATM    8  C   UNL     1      -0.615 -10.030  -1.510  1.00  0.00     0.296 C 
HETATM    9  O   UNL     1      -0.459  -9.143  -2.613  1.00  0.00    -0.349 OA
HETATM   10  C   UNL     1       0.784  -8.427  -2.703  1.00  0.00     0.179 C 
HETATM   11  C   UNL     1       2.039  -9.256  -2.360  1.00  0.00     0.186 C 
HETATM   12  C   UNL     1       1.729 -10.745  -2.266  1.00  0.00     0.187 C 
HETATM   13  C   UNL     1       0.613 -10.965  -1.240  1.00  0.00     0.303 C 
BRANCH  10  14
HETATM   14  C   UNL     1       0.677  -7.158  -1.842  1.00  0.00     0.198 C 
BRANCH  14  15
HETATM   15  O   UNL     1       1.532  -7.254  -0.703  1.00  0.00    -0.398 OA
HETATM   16  H   UNL     1       2.439  -7.075  -1.018  1.00  0.00     0.209 HD
ENDBRANCH  14  15
ENDBRANCH  10  14
BRANCH  11  17
HETATM   17  O   UNL     1       3.016  -9.104  -3.403  1.00  0.00    -0.348 OA
BRANCH  17  18
HETATM   18  C   UNL     1       4.312  -9.562  -3.033  1.00  0.00     0.296 C 
HETATM   19  O   UNL     1       4.821  -8.717  -1.993  1.00  0.00    -0.351 OA
HETATM   20  C   UNL     1       5.899  -9.336  -1.263  1.00  0.00     0.150 C 
HETATM   21  C   UNL     1       6.765 -10.205  -2.195  1.00  0.00     0.068 C 
HETATM   22  C   UNL     1       6.756  -9.608  -3.611  1.00  0.00     0.158 C 
HETATM   23  C   UNL     1       5.325  -9.600  -4.248  1.00  0.00     0.303 C 
BRANCH  20  24
HETATM   24  C   UNL     1       5.369 -10.050  -0.010  1.00  0.00     0.196 C 
BRANCH  24  25
HETATM   25  O   UNL     1       4.093  -9.549   0.380  1.00  0.00    -0.398 OA
HETATM   26  H   UNL     1       3.686 -10.239   0.936  1.00  0.00     0.209 HD
ENDBRANCH  24  25
ENDBRANCH  20  24
BRANCH  22  27
HETATM   27  O   UNL     1       7.255  -8.265  -3.504  1.00  0.00    -0.393 OA
HETATM   28  H   UNL     1       7.073  -7.957  -2.593  1.00  0.00     0.210 HD
ENDBRANCH  22  27
BRANCH  23  29
HETATM   29  N   UNL     1       5.156  -8.458  -5.203  1.00  0.00     0.096 N 
HETATM   30  H   UNL     1       5.943  -7.835  -5.025  1.00  0.00     0.316 HD
BRANCH  29  31
HETATM   31  C   UNL     1       5.057  -8.768  -6.655  1.00  0.00     0.287 C 
BRANCH  31  32
HETATM   32  C   UNL     1       6.441  -8.644  -7.476  1.00  0.00     0.044 C 
HETATM   33  C   UNL     1       6.163  -8.898  -8.965  1.00  0.00     0.025 C 
BRANCH  32  34
HETATM   34  C   UNL     1       7.591  -9.645  -6.916  1.00  0.00     0.035 C 
BRANCH  34  35
HETATM   35  C   UNL     1       7.681 -11.242  -7.227  1.00  0.00     0.019 C 
HETATM   36  C   UNL     1       6.191 -11.666  -7.332  1.00  0.00     0.023 C 
BRANCH  35  37
HETATM   37  C   UNL     1       8.395 -11.984  -5.973  1.00  0.00     0.033 C 
BRANCH  37  38
HETATM   38  C   UNL     1       8.787 -13.568  -5.805  1.00  0.00     0.019 C 
HETATM   39  C   UNL     1       7.685 -14.440  -6.429  1.00  0.00     0.023 C 
BRANCH  38  40
HETATM   40  C   UNL     1       8.839 -13.828  -4.224  1.00  0.00     0.033 C 
BRANCH  40  41
HETATM   41  C   UNL     1       8.041 -14.903  -3.300  1.00  0.00     0.019 C 
HETATM   42  C   UNL     1       7.875 -14.193  -1.929  1.00  0.00     0.023 C 
BRANCH  41  43
HETATM   43  C   UNL     1       6.642 -15.400  -3.799  1.00  0.00     0.033 C 
BRANCH  43  44
HETATM   44  C   UNL     1       5.271 -14.632  -3.675  1.00  0.00     0.014 C 
HETATM   45  C   UNL     1       4.362 -15.175  -4.812  1.00  0.00     0.023 C 
HETATM   46  C   UNL     1       5.361 -13.117  -3.946  1.00  0.00     0.023 C 
BRANCH  44  47
HETATM   47  C   UNL     1       4.601 -14.839  -2.295  1.00  0.00     0.136 C 
HETATM   48  O   UNL     1       4.448 -13.879  -1.533  1.00  0.00    -0.297 OA
BRANCH  47  49
HETATM   49  C   UNL     1       4.216 -16.239  -1.823  1.00  0.00     0.109 C 
BRANCH  49  50
HETATM   50  C   UNL     1       5.191 -16.737  -0.745  1.00  0.00     0.279 C 
BRANCH  50  51
HETATM   51  N   UNL     1       4.760 -18.008  -0.126  1.00  0.00     0.080 N 
HETATM   52  C   UNL     1       3.480 -18.473  -0.662  1.00  0.00     0.309 C 
HETATM   53  C   UNL     1       5.776 -19.045  -0.339  1.00  0.00     0.309 C 
ENDBRANCH  50  51
ENDBRANCH  49  50
ENDBRANCH  47  49
ENDBRANCH  44  47
ENDBRANCH  43  44
ENDBRANCH  41  43
BRANCH  41  54
HETATM   54  C   UNL     1       9.018 -16.098  -3.043  1.00  0.00     0.137 C 
HETATM   55  O   UNL     1      10.075 -16.208  -3.654  1.00  0.00    -0.297 OA
BRANCH  54  56
HETATM   56  C   UNL     1       8.542 -17.238  -2.165  1.00  0.00     0.109 C 
BRANCH  56  57
HETATM   57  C   UNL     1       9.688 -17.961  -1.457  1.00  0.00     0.279 C 
BRANCH  57  58
HETATM   58  N   UNL     1       9.808 -19.329  -2.005  1.00  0.00     0.080 N 
HETATM   59  C   UNL     1      10.108 -20.294  -0.945  1.00  0.00     0.309 C 
HETATM   60  C   UNL     1       8.596 -19.729  -2.713  1.00  0.00     0.309 C 
ENDBRANCH  57  58
ENDBRANCH  56  57
ENDBRANCH  54  56
ENDBRANCH  41  54
ENDBRANCH  40  41
ENDBRANCH  38  40
BRANCH  38  61
HETATM   61  C   UNL     1      10.129 -14.046  -6.423  1.00  0.00     0.137 C 
HETATM   62  O   UNL     1      10.228 -15.202  -6.851  1.00  0.00    -0.297 OA
BRANCH  61  63
HETATM   63  C   UNL     1      11.321 -13.130  -6.552  1.00  0.00     0.109 C 
BRANCH  63  64
HETATM   64  C   UNL     1      12.426 -13.670  -7.473  1.00  0.00     0.279 C 
BRANCH  64  65
HETATM   65  N   UNL     1      13.670 -13.955  -6.726  1.00  0.00     0.080 N 
HETATM   66  C   UNL     1      14.002 -15.381  -6.762  1.00  0.00     0.309 C 
HETATM   67  C   UNL     1      14.782 -13.184  -7.291  1.00  0.00     0.309 C 
ENDBRANCH  64  65
ENDBRANCH  63  64
ENDBRANCH  61  63
ENDBRANCH  38  61
ENDBRANCH  37  38
ENDBRANCH  35  37
BRANCH  35  68
HETATM   68  C   UNL     1       8.428 -11.719  -8.509  1.00  0.00     0.137 C 
HETATM   69  O   UNL     1       9.552 -11.257  -8.741  1.00  0.00    -0.297 OA
BRANCH  68  70
HETATM   70  C   UNL     1       7.809 -12.711  -9.504  1.00  0.00     0.109 C 
BRANCH  70  71
HETATM   71  C   UNL     1       8.795 -13.825  -9.931  1.00  0.00     0.279 C 
BRANCH  71  72
HETATM   72  N   UNL     1       9.373 -13.806 -11.291  1.00  0.00     0.080 N 
HETATM   73  C   UNL     1      10.759 -13.369 -11.318  1.00  0.00     0.309 C 
HETATM   74  C   UNL     1       9.306 -15.160 -11.863  1.00  0.00     0.309 C 
ENDBRANCH  71  72
ENDBRANCH  70  71
ENDBRANCH  68  70
ENDBRANCH  35  68
ENDBRANCH  34  35
ENDBRANCH  32  34
BRANCH  32  75
HETATM   75  C   UNL     1       6.922  -7.209  -7.145  1.00  0.00     0.138 C 
HETATM   76  O   UNL     1       7.450  -6.960  -6.053  1.00  0.00    -0.297 OA
BRANCH  75  77
HETATM   77  C   UNL     1       6.632  -6.055  -8.079  1.00  0.00     0.109 C 
BRANCH  77  78
HETATM   78  C   UNL     1       5.893  -4.971  -7.316  1.00  0.00     0.279 C 
BRANCH  78  79
HETATM   79  N   UNL     1       5.322  -3.908  -8.155  1.00  0.00     0.080 N 
HETATM   80  C   UNL     1       5.800  -2.588  -7.741  1.00  0.00     0.309 C 
HETATM   81  C   UNL     1       3.858  -3.947  -8.079  1.00  0.00     0.309 C 
ENDBRANCH  78  79
ENDBRANCH  77  78
ENDBRANCH  75  77
ENDBRANCH  32  75
ENDBRANCH  31  32
ENDBRANCH  29  31
ENDBRANCH  23  29
ENDBRANCH  17  18
ENDBRANCH  11  17
BRANCH  12  82
HETATM   82  O   UNL     1       1.376 -11.272  -3.552  1.00  0.00    -0.391 OA
HETATM   83  H   UNL     1       1.900 -10.748  -4.192  1.00  0.00     0.210 HD
ENDBRANCH  12  82
BRANCH  13  84
HETATM   84  N   UNL     1       0.314 -12.407  -1.126  1.00  0.00     0.090 N 
HETATM   85  H   UNL     1      -0.702 -12.490  -1.241  1.00  0.00     0.313 HD
HETATM   86  H   UNL     1       0.470 -12.694  -0.150  1.00  0.00     0.313 HD
ENDBRANCH  13  84
ENDBRANCH   7   8
ENDBRANCH   1   7
BRANCH   2  87
HETATM   87  C   UNL     1      -2.495  -9.669   1.483  1.00  0.00     0.198 C 
BRANCH  87  88
HETATM   88  O   UNL     1      -2.629  -8.456   2.212  1.00  0.00    -0.398 OA
HETATM   89  H   UNL     1      -1.756  -8.218   2.569  1.00  0.00     0.209 HD
ENDBRANCH  87  88
ENDBRANCH   2  87
BRANCH   3  90
HETATM   90  O   UNL     1      -4.255 -10.201  -2.650  1.00  0.00    -0.391 OA
HETATM   91  H   UNL     1      -4.439  -9.274  -2.393  1.00  0.00     0.210 HD
ENDBRANCH   3  90
BRANCH   4  92
HETATM   92  N   UNL     1      -6.646 -10.739  -1.105  1.00  0.00     0.090 N 
HETATM   93  H   UNL     1      -7.129  -9.838  -1.145  1.00  0.00     0.313 HD
HETATM   94  H   UNL     1      -7.211 -11.269  -0.428  1.00  0.00     0.313 HD
ENDBRANCH   4  92
BRANCH   5  95
HETATM   95  O   UNL     1      -6.072  -8.181  -0.469  1.00  0.00    -0.348 OA
BRANCH  95  96
HETATM   96  C   UNL     1      -6.716  -7.285   0.483  1.00  0.00     0.186 C 
HETATM   97  C   UNL     1      -6.224  -7.575   1.912  1.00  0.00     0.180 C 
HETATM   98  O   UNL     1      -5.668  -6.429   2.556  1.00  0.00    -0.349 OA
HETATM   99  C   UNL     1      -6.399  -5.208   2.475  1.00  0.00     0.286 C 
HETATM  100  C   UNL     1      -6.746  -4.699   1.006  1.00  0.00     0.167 C 
HETATM  101  C   UNL     1      -6.309  -5.844   0.045  1.00  0.00     0.177 C 
BRANCH  97 102
HETATM  102  C   UNL     1      -7.300  -8.183   2.824  1.00  0.00     0.198 C 
BRANCH 102 103
HETATM  103  O   UNL     1      -7.072  -9.580   2.999  1.00  0.00    -0.398 OA
HETATM  104  H   UNL     1      -6.256  -9.811   2.512  1.00  0.00     0.209 HD
ENDBRANCH 102 103
ENDBRANCH  97 102
BRANCH  99 105
HETATM  105  O   UNL     1      -5.547  -4.270   3.130  1.00  0.00    -0.348 OA
BRANCH 105 106
HETATM  106  C   UNL     1      -5.830  -4.036   4.501  1.00  0.00     0.186 C 
HETATM  107  C   UNL     1      -4.805  -4.773   5.387  1.00  0.00     0.176 C 
HETATM  108  O   UNL     1      -4.521  -4.059   6.614  1.00  0.00    -0.379 OA
HETATM  109  C   UNL     1      -5.657  -3.377   7.154  1.00  0.00     0.206 C 
HETATM  110  C   UNL     1      -6.133  -2.237   6.227  1.00  0.00     0.272 C 
HETATM  111  C   UNL     1      -5.732  -2.521   4.763  1.00  0.00     0.184 C 
BRANCH 107 112
HETATM  112  C   UNL     1      -5.229  -6.206   5.732  1.00  0.00     0.198 C 
BRANCH 112 113
HETATM  113  O   UNL     1      -4.446  -7.138   4.988  1.00  0.00    -0.398 OA
HETATM  114  H   UNL     1      -4.902  -7.256   4.132  1.00  0.00     0.209 HD
ENDBRANCH 112 113
ENDBRANCH 107 112
BRANCH 110 115
HETATM  115  N   UNL     1      -5.626  -0.924   6.668  1.00  0.00     0.087 N 
HETATM  116  H   UNL     1      -6.322  -0.508   7.292  1.00  0.00     0.313 HD
HETATM  117  H   UNL     1      -5.654  -0.298   5.857  1.00  0.00     0.313 HD
ENDBRANCH 110 115
BRANCH 111 118
HETATM  118  O   UNL     1      -4.409  -2.012   4.504  1.00  0.00    -0.391 OA
HETATM  119  H   UNL     1      -4.100  -2.404   3.666  1.00  0.00     0.210 HD
ENDBRANCH 111 118
ENDBRANCH 105 106
ENDBRANCH  99 105
BRANCH 100 120
HETATM  120  N   UNL     1      -6.098  -3.364   0.754  1.00  0.00    -0.389 N 
HETATM  121  H   UNL     1      -5.388  -3.257   1.486  1.00  0.00     0.159 HD
BRANCH 120 122
HETATM  122  C   UNL     1      -5.822  -2.744  -0.549  1.00  0.00     0.073 C 
BRANCH 122 123
HETATM  123  C   UNL     1      -6.585  -1.415  -1.026  1.00  0.00     0.049 C 
HETATM  124  C   UNL     1      -6.889  -1.629  -2.518  1.00  0.00     0.029 C 
BRANCH 123 125
HETATM  125  C   UNL     1      -5.934   0.073  -0.784  1.00  0.00     0.039 C 
BRANCH 125 126
HETATM  126  C   UNL     1      -4.378   0.316  -0.245  1.00  0.00     0.019 C 
HETATM  127  C   UNL     1      -4.170   1.812  -0.609  1.00  0.00     0.023 C 
BRANCH 126 128
HETATM  128  C   UNL     1      -4.081   0.104   1.271  1.00  0.00     0.137 C 
HETATM  129  O   UNL     1      -4.513  -0.921   1.814  1.00  0.00    -0.297 OA
BRANCH 128 130
HETATM  130  C   UNL     1      -3.299   1.136   2.108  1.00  0.00     0.109 C 
BRANCH 130 131
HETATM  131  C   UNL     1      -4.216   2.130   2.856  1.00  0.00     0.279 C 
BRANCH 131 132
HETATM  132  N   UNL     1      -3.771   2.715   4.137  1.00  0.00     0.080 N 
HETATM  133  C   UNL     1      -4.511   2.083   5.237  1.00  0.00     0.309 C 
HETATM  134  C   UNL     1      -3.973   4.151   4.215  1.00  0.00     0.309 C 
ENDBRANCH 131 132
ENDBRANCH 130 131
ENDBRANCH 128 130
ENDBRANCH 126 128
BRANCH 126 135
HETATM  135  C   UNL     1      -3.258  -0.606  -1.016  1.00  0.00     0.033 C 
BRANCH 135 136
HETATM  136  C   UNL     1      -2.503  -0.284  -2.473  1.00  0.00     0.019 C 
HETATM  137  C   UNL     1      -3.523   0.364  -3.425  1.00  0.00     0.023 C 
BRANCH 136 138
HETATM  138  C   UNL     1      -1.252   0.640  -2.471  1.00  0.00     0.137 C 
HETATM  139  O   UNL     1      -0.662   0.875  -3.533  1.00  0.00    -0.297 OA
BRANCH 138 140
HETATM  140  C   UNL     1      -0.730   1.282  -1.208  1.00  0.00     0.109 C 
BRANCH 140 141
HETATM  141  C   UNL     1       0.136   2.533  -1.435  1.00  0.00     0.279 C 
BRANCH 141 142
HETATM  142  N   UNL     1       1.541   2.313  -1.030  1.00  0.00     0.080 N 
HETATM  143  C   UNL     1       2.032   3.460  -0.257  1.00  0.00     0.309 C 
HETATM  144  C   UNL     1       2.411   2.107  -2.191  1.00  0.00     0.309 C 
ENDBRANCH 141 142
ENDBRANCH 140 141
ENDBRANCH 138 140
ENDBRANCH 136 138
BRANCH 136 145
HETATM  145  C   UNL     1      -2.045  -1.697  -3.090  1.00  0.00     0.033 C 
BRANCH 145 146
HETATM  146  C   UNL     1      -1.333  -2.994  -2.371  1.00  0.00     0.019 C 
HETATM  147  C   UNL     1      -0.382  -3.568  -3.457  1.00  0.00     0.023 C 
BRANCH 146 148
HETATM  148  C   UNL     1      -0.521  -2.772  -1.044  1.00  0.00     0.033 C 
BRANCH 148 149
HETATM  149  C   UNL     1       0.996  -2.340  -0.922  1.00  0.00     0.014 C 
HETATM  150  C   UNL     1       1.083  -1.381   0.299  1.00  0.00     0.023 C 
HETATM  151  C   UNL     1       1.522  -1.498  -2.104  1.00  0.00     0.023 C 
BRANCH 149 152
HETATM  152  C   UNL     1       1.953  -3.546  -0.731  1.00  0.00     0.136 C 
HETATM  153  O   UNL     1       1.666  -4.438   0.072  1.00  0.00    -0.297 OA
BRANCH 152 154
HETATM  154  C   UNL     1       3.296  -3.594  -1.455  1.00  0.00     0.109 C 
BRANCH 154 155
HETATM  155  C   UNL     1       3.354  -4.784  -2.428  1.00  0.00     0.279 C 
BRANCH 155 156
HETATM  156  N   UNL     1       3.061  -4.397  -3.826  1.00  0.00     0.080 N 
HETATM  157  C   UNL     1       4.063  -3.476  -4.363  1.00  0.00     0.309 C 
HETATM  158  C   UNL     1       2.996  -5.590  -4.679  1.00  0.00     0.309 C 
ENDBRANCH 155 156
ENDBRANCH 154 155
ENDBRANCH 152 154
ENDBRANCH 149 152
ENDBRANCH 148 149
ENDBRANCH 146 148
BRANCH 146 159
HETATM  159  C   UNL     1      -2.446  -4.073  -2.169  1.00  0.00     0.137 C 
HETATM  160  O   UNL     1      -2.258  -5.073  -1.468  1.00  0.00    -0.297 OA
BRANCH 159 161
HETATM  161  C   UNL     1      -3.703  -3.981  -3.005  1.00  0.00     0.109 C 
BRANCH 161 162
HETATM  162  C   UNL     1      -4.055  -5.288  -3.719  1.00  0.00     0.279 C 
BRANCH 162 163
HETATM  163  N   UNL     1      -3.157  -5.461  -4.880  1.00  0.00     0.080 N 
HETATM  164  C   UNL     1      -3.260  -4.341  -5.812  1.00  0.00     0.309 C 
HETATM  165  C   UNL     1      -3.438  -6.716  -5.580  1.00  0.00     0.309 C 
ENDBRANCH 162 163
ENDBRANCH 161 162
ENDBRANCH 159 161
ENDBRANCH 146 159
ENDBRANCH 145 146
ENDBRANCH 136 145
ENDBRANCH 135 136
ENDBRANCH 126 135
ENDBRANCH 125 126
ENDBRANCH 123 125
BRANCH 123 166
HETATM  166  C   UNL     1      -7.801  -1.468  -0.057  1.00  0.00     0.141 C 
HETATM  167  O   UNL     1      -8.752  -2.236  -0.254  1.00  0.00    -0.297 OA
BRANCH 166 168
HETATM  168  C   UNL     1      -7.905  -0.486   1.084  1.00  0.00     0.110 C 
BRANCH 168 169
HETATM  169  C   UNL     1      -9.334  -0.008   1.206  1.00  0.00     0.279 C 
BRANCH 169 170
HETATM  170  N   UNL     1     -10.033  -0.415   2.434  1.00  0.00     0.080 N 
HETATM  171  C   UNL     1     -10.818   0.691   2.984  1.00  0.00     0.309 C 
HETATM  172  C   UNL     1      -9.051  -0.843   3.435  1.00  0.00     0.309 C 
ENDBRANCH 169 170
ENDBRANCH 168 169
ENDBRANCH 166 168
ENDBRANCH 123 166
ENDBRANCH 122 123
ENDBRANCH 120 122
ENDBRANCH 100 120
BRANCH 101 173
HETATM  173  O   UNL     1      -4.874  -5.803  -0.113  1.00  0.00    -0.391 OA
HETATM  174  H   UNL     1      -4.700  -5.923  -1.068  1.00  0.00     0.210 HD
ENDBRANCH 101 173
ENDBRANCH  95  96
ENDBRANCH   5  95
TORSDOF 88
ENDMDL
MODEL 4
REMARK VINA RESULT:      -4.5     20.880     30.087
REMARK WARNING: 32 MAX_TORS EXCEEDED!!!
REMARK  88 active torsions:
REMARK  status: ('A' for Active; 'I' for Inactive)
REMARK    1  A    between atoms: C_1  and  O_28 
REMARK    2  A    between atoms: C_2  and  C_6 
REMARK    3  A    between atoms: C_3  and  O_8 
REMARK    4  A    between atoms: C_4  and  N_10 
REMARK    5  A    between atoms: C_5  and  O_11 
REMARK    6  A    between atoms: C_6  and  O_65 
REMARK    7  A    between atoms: O_11  and  C_18 
REMARK    8  A    between atoms: O_13  and  C_16 
REMARK    9  A    between atoms: C_15  and  C_21 
REMARK   10  A    between atoms: O_17  and  C_20 
REMARK   11  A    between atoms: O_17  and  C_39 
REMARK   12  A    between atoms: N_19  and  C_22 
REMARK   13  A    between atoms: N_19  and  C_161 
REMARK   14  A    between atoms: C_21  and  O_67 
REMARK   15  A    between atoms: O_24  and  C_27 
REMARK   16  A    between atoms: C_26  and  C_32 
REMARK   17  A    between atoms: O_28  and  C_31 
REMARK   18  A    between atoms: C_29  and  O_49 
REMARK   19  A    between atoms: N_30  and  C_33 
REMARK   20  A    between atoms: C_32  and  O_63 
REMARK   21  A    between atoms: O_35  and  C_38 
REMARK   22  A    between atoms: C_37  and  C_42 
REMARK   23  A    between atoms: N_40  and  C_43 
REMARK   24  A    between atoms: C_42  and  O_69 
REMARK   25  A    between atoms: O_45  and  C_48 
REMARK   26  A    between atoms: C_47  and  C_53 
REMARK   27  A    between atoms: O_49  and  C_52 
REMARK   28  A    between atoms: N_51  and  C_54 
REMARK   29  A    between atoms: N_51  and  C_71 
REMARK   30  A    between atoms: C_53  and  O_61 
REMARK   31  A    between atoms: C_71  and  C_73 
REMARK   32  A    between atoms: C_73  and  C_74 
REMARK   33  A    between atoms: C_73  and  C_83 
REMARK   34  A    between atoms: C_74  and  C_75 
REMARK   35  A    between atoms: C_75  and  C_76 
REMARK   36  A    between atoms: C_75  and  C_87 
REMARK   37  A    between atoms: C_76  and  C_77 
REMARK   38  A    between atoms: C_77  and  C_78 
REMARK   39  A    between atoms: C_77  and  C_91 
REMARK   40  A    between atoms: C_78  and  C_79 
REMARK   41  A    between atoms: C_79  and  C_80 
REMARK   42  A    between atoms: C_79  and  C_95 
REMARK   43  A    between atoms: C_80  and  C_81 
REMARK   44  A    between atoms: C_81  and  C_99 
REMARK   45  A    between atoms: C_83  and  C_84 
REMARK   46  A    between atoms: C_84  and  C_85 
REMARK   47  A    between atoms: C_85  and  N_103 
REMARK   48  A    between atoms: C_87  and  C_88 
REMARK   49  A    between atoms: C_88  and  C_89 
REMARK   50  A    between atoms: C_89  and  N_104 
REMARK   51  A    between atoms: C_91  and  C_92 
REMARK   52  A    between atoms: C_92  and  C_93 
REMARK   53  A    between atoms: C_93  and  N_105 
REMARK   54  A    between atoms: C_95  and  C_96 
REMARK   55  A    between atoms: C_96  and  C_97 
REMARK   56  A    between atoms: C_97  and  N_106 
REMARK   57  A    between atoms: C_99  and  C_100 
REMARK   58  A    between atoms: C_100  and  C_101 
REMARK   59  A    between atoms: C_101  and  N_107 
REMARK   60  A    between atoms: N_126  and  C_129 
REMARK   61  A    between atoms: C_129  and  C_135 
REMARK   62  A    between atoms: C_130  and  C_135 
REMARK   63  A    between atoms: C_130  and  C_142 
REMARK   64  A    between atoms: N_132  and  C_139 
REMARK   65  A    between atoms: C_136  and  C_137 
REMARK   66  A    between atoms: C_136  and  C_146 
REMARK   67  A    between atoms: C_137  and  C_139 
REMARK   68  A    between atoms: N_141  and  C_152 
REMARK   69  A    between atoms: C_142  and  C_153 
REMARK   70  A    between atoms: C_142  and  C_159 
REMARK   71  A    between atoms: C_144  and  C_152 
REMARK   72  A    between atoms: C_144  and  C_156 
REMARK   73  A    between atoms: C_146  and  C_162 
REMARK   74  A    between atoms: C_146  and  C_153 
REMARK   75  A    between atoms: C_148  and  C_156 
REMARK   76  A    between atoms: C_148  and  C_149 
REMARK   77  A    between atoms: C_149  and  C_163 
REMARK   78  A    between atoms: C_150  and  C_161 
REMARK   79  A    between atoms: C_150  and  C_159 
REMARK   80  A    between atoms: C_150  and  C_160 
REMARK   81  A    between atoms: C_151  and  N_157 
REMARK   82  A    between atoms: C_151  and  C_154 
REMARK   83  A    between atoms: C_154  and  C_160 
REMARK   84  A    between atoms: C_162  and  C_163 
REMARK   85  A    between atoms: C_163  and  C_169 
REMARK   86  A    between atoms: C_166  and  C_171 
REMARK   87  A    between atoms: C_166  and  C_169 
REMARK   88  A    between atoms: N_167  and  C_171 
ROOT
HETATM    1  C   UNL     1      -5.586  -5.741   4.362  1.00  0.00     0.186 C 
HETATM    2  C   UNL     1      -6.841  -4.906   4.025  1.00  0.00     0.179 C 
HETATM    3  C   UNL     1      -4.909  -5.220   5.647  1.00  0.00     0.187 C 
HETATM    4  C   UNL     1      -4.808  -3.676   5.654  1.00  0.00     0.303 C 
HETATM    5  C   UNL     1      -6.216  -3.023   5.425  1.00  0.00     0.296 C 
HETATM    6  O   UNL     1      -7.197  -4.013   5.096  1.00  0.00    -0.349 OA
ENDROOT
BRANCH   1   7
HETATM    7  O   UNL     1      -5.991  -7.103   4.559  1.00  0.00    -0.348 OA
BRANCH   7   8
HETATM    8  C   UNL     1      -5.445  -8.041   3.620  1.00  0.00     0.296 C 
HETATM    9  O   UNL     1      -4.591  -7.298   2.754  1.00  0.00    -0.349 OA
HETATM   10  C   UNL     1      -4.136  -7.960   1.563  1.00  0.00     0.179 C 
HETATM   11  C   UNL     1      -5.202  -8.811   0.842  1.00  0.00     0.186 C 
HETATM   12  C   UNL     1      -6.601  -8.552   1.388  1.00  0.00     0.187 C 
HETATM   13  C   UNL     1      -6.608  -8.804   2.898  1.00  0.00     0.303 C 
BRANCH  10  14
HETATM   14  C   UNL     1      -2.882  -8.779   1.911  1.00  0.00     0.198 C 
BRANCH  14  15
HETATM   15  O   UNL     1      -2.328  -9.369   0.736  1.00  0.00    -0.398 OA
HETATM   16  H   UNL     1      -3.011  -9.303   0.041  1.00  0.00     0.209 HD
ENDBRANCH  14  15
ENDBRANCH  10  14
BRANCH  11  17
HETATM   17  O   UNL     1      -5.232  -8.464  -0.552  1.00  0.00    -0.348 OA
BRANCH  17  18
HETATM   18  C   UNL     1      -4.900  -9.548  -1.411  1.00  0.00     0.296 C 
HETATM   19  O   UNL     1      -4.534 -10.678  -0.609  1.00  0.00    -0.351 OA
HETATM   20  C   UNL     1      -4.605 -11.917  -1.341  1.00  0.00     0.150 C 
HETATM   21  C   UNL     1      -4.194 -11.710  -2.812  1.00  0.00     0.068 C 
HETATM   22  C   UNL     1      -3.160 -10.576  -2.902  1.00  0.00     0.158 C 
HETATM   23  C   UNL     1      -3.737  -9.201  -2.426  1.00  0.00     0.303 C 
BRANCH  20  24
HETATM   24  C   UNL     1      -5.968 -12.595  -1.134  1.00  0.00     0.196 C 
BRANCH  24  25
HETATM   25  O   UNL     1      -6.380 -12.540   0.229  1.00  0.00    -0.398 OA
HETATM   26  H   UNL     1      -5.937 -11.762   0.618  1.00  0.00     0.209 HD
ENDBRANCH  24  25
ENDBRANCH  20  24
BRANCH  22  27
HETATM   27  O   UNL     1      -2.047 -10.957  -2.076  1.00  0.00    -0.393 OA
HETATM   28  H   UNL     1      -1.260 -11.015  -2.655  1.00  0.00     0.210 HD
ENDBRANCH  22  27
BRANCH  23  29
HETATM   29  N   UNL     1      -2.669  -8.332  -1.836  1.00  0.00     0.096 N 
HETATM   30  H   UNL     1      -2.190  -8.916  -1.151  1.00  0.00     0.316 HD
BRANCH  29  31
HETATM   31  C   UNL     1      -1.686  -7.705  -2.760  1.00  0.00     0.287 C 
BRANCH  31  32
HETATM   32  C   UNL     1      -0.351  -7.135  -2.053  1.00  0.00     0.044 C 
HETATM   33  C   UNL     1      -0.743  -6.402  -0.761  1.00  0.00     0.025 C 
BRANCH  32  34
HETATM   34  C   UNL     1       0.512  -6.171  -3.034  1.00  0.00     0.035 C 
BRANCH  34  35
HETATM   35  C   UNL     1       0.018  -4.729  -3.611  1.00  0.00     0.019 C 
HETATM   36  C   UNL     1       0.422  -4.792  -5.109  1.00  0.00     0.023 C 
BRANCH  35  37
HETATM   37  C   UNL     1       0.833  -3.550  -2.852  1.00  0.00     0.033 C 
BRANCH  37  38
HETATM   38  C   UNL     1       2.421  -3.499  -2.443  1.00  0.00     0.019 C 
HETATM   39  C   UNL     1       2.560  -3.548  -0.913  1.00  0.00     0.023 C 
BRANCH  38  40
HETATM   40  C   UNL     1       2.953  -2.085  -2.980  1.00  0.00     0.033 C 
BRANCH  40  41
HETATM   41  C   UNL     1       2.223  -0.957  -3.899  1.00  0.00     0.019 C 
HETATM   42  C   UNL     1       2.215  -1.564  -5.328  1.00  0.00     0.023 C 
BRANCH  41  43
HETATM   43  C   UNL     1       0.770  -0.526  -3.509  1.00  0.00     0.033 C 
BRANCH  43  44
HETATM   44  C   UNL     1       0.335   0.250  -2.206  1.00  0.00     0.014 C 
HETATM   45  C   UNL     1       0.755   1.731  -2.419  1.00  0.00     0.023 C 
HETATM   46  C   UNL     1       1.081  -0.181  -0.928  1.00  0.00     0.023 C 
BRANCH  44  47
HETATM   47  C   UNL     1      -1.187   0.147  -1.939  1.00  0.00     0.136 C 
HETATM   48  O   UNL     1      -1.966  -0.052  -2.876  1.00  0.00    -0.297 OA
BRANCH  47  49
HETATM   49  C   UNL     1      -1.745   0.387  -0.539  1.00  0.00     0.109 C 
BRANCH  49  50
HETATM   50  C   UNL     1      -2.949  -0.528  -0.269  1.00  0.00     0.279 C 
BRANCH  50  51
HETATM   51  N   UNL     1      -4.085   0.189   0.348  1.00  0.00     0.080 N 
HETATM   52  C   UNL     1      -5.119   0.526  -0.631  1.00  0.00     0.309 C 
HETATM   53  C   UNL     1      -4.679  -0.626   1.415  1.00  0.00     0.309 C 
ENDBRANCH  50  51
ENDBRANCH  49  50
ENDBRANCH  47  49
ENDBRANCH  44  47
ENDBRANCH  43  44
ENDBRANCH  41  43
BRANCH  41  54
HETATM   54  C   UNL     1       3.190   0.271  -3.965  1.00  0.00     0.137 C 
HETATM   55  O   UNL     1       3.321   0.933  -4.989  1.00  0.00    -0.297 OA
BRANCH  54  56
HETATM   56  C   UNL     1       4.122   0.515  -2.796  1.00  0.00     0.109 C 
BRANCH  56  57
HETATM   57  C   UNL     1       4.942   1.797  -2.944  1.00  0.00     0.279 C 
BRANCH  57  58
HETATM   58  N   UNL     1       4.255   2.894  -2.230  1.00  0.00     0.080 N 
HETATM   59  C   UNL     1       5.167   3.566  -1.301  1.00  0.00     0.309 C 
HETATM   60  C   UNL     1       3.689   3.866  -3.160  1.00  0.00     0.309 C 
ENDBRANCH  57  58
ENDBRANCH  56  57
ENDBRANCH  54  56
ENDBRANCH  41  54
ENDBRANCH  40  41
ENDBRANCH  38  40
BRANCH  38  61
HETATM   61  C   UNL     1       3.344  -4.614  -3.004  1.00  0.00     0.137 C 
HETATM   62  O   UNL     1       3.745  -5.512  -2.254  1.00  0.00    -0.297 OA
BRANCH  61  63
HETATM   63  C   UNL     1       3.750  -4.660  -4.457  1.00  0.00     0.109 C 
BRANCH  63  64
HETATM   64  C   UNL     1       3.624  -6.052  -5.096  1.00  0.00     0.279 C 
BRANCH  64  65
HETATM   65  N   UNL     1       4.941  -6.588  -5.502  1.00  0.00     0.080 N 
HETATM   66  C   UNL     1       5.201  -7.892  -4.886  1.00  0.00     0.309 C 
HETATM   67  C   UNL     1       5.001  -6.721  -6.961  1.00  0.00     0.309 C 
ENDBRANCH  64  65
ENDBRANCH  63  64
ENDBRANCH  61  63
ENDBRANCH  38  61
ENDBRANCH  37  38
ENDBRANCH  35  37
BRANCH  35  68
HETATM   68  C   UNL     1      -1.493  -4.358  -3.515  1.00  0.00     0.137 C 
HETATM   69  O   UNL     1      -2.256  -4.771  -4.396  1.00  0.00    -0.297 OA
BRANCH  68  70
HETATM   70  C   UNL     1      -2.055  -3.475  -2.392  1.00  0.00     0.109 C 
BRANCH  70  71
HETATM   71  C   UNL     1      -3.592  -3.303  -2.479  1.00  0.00     0.279 C 
BRANCH  71  72
HETATM   72  N   UNL     1      -4.449  -3.855  -1.409  1.00  0.00     0.080 N 
HETATM   73  C   UNL     1      -5.701  -3.132  -1.249  1.00  0.00     0.309 C 
HETATM   74  C   UNL     1      -4.764  -5.258  -1.718  1.00  0.00     0.309 C 
ENDBRANCH  71  72
ENDBRANCH  70  71
ENDBRANCH  68  70
ENDBRANCH  35  68
ENDBRANCH  34  35
ENDBRANCH  32  34
BRANCH  32  75
HETATM   75  C   UNL     1       0.506  -8.407  -1.838  1.00  0.00     0.138 C 
HETATM   76  O   UNL     1       0.080  -9.342  -1.146  1.00  0.00    -0.297 OA
BRANCH  75  77
HETATM   77  C   UNL     1       1.930  -8.482  -2.342  1.00  0.00     0.109 C 
BRANCH  77  78
HETATM   78  C   UNL     1       2.740  -9.371  -1.416  1.00  0.00     0.279 C 
BRANCH  78  79
HETATM   79  N   UNL     1       4.090  -9.694  -1.899  1.00  0.00     0.080 N 
HETATM   80  C   UNL     1       4.076 -10.870  -2.770  1.00  0.00     0.309 C 
HETATM   81  C   UNL     1       4.981  -9.937  -0.759  1.00  0.00     0.309 C 
ENDBRANCH  78  79
ENDBRANCH  77  78
ENDBRANCH  75  77
ENDBRANCH  32  75
ENDBRANCH  31  32
ENDBRANCH  29  31
ENDBRANCH  23  29
ENDBRANCH  17  18
ENDBRANCH  11  17
BRANCH  12  82
HETATM   82  O   UNL     1      -7.030  -7.220   1.072  1.00  0.00    -0.391 OA
HETATM   83  H   UNL     1      -6.273  -6.818   0.599  1.00  0.00     0.210 HD
ENDBRANCH  12  82
BRANCH  13  84
HETATM   84  N   UNL     1      -7.964  -8.574   3.439  1.00  0.00     0.090 N 
HETATM   85  H   UNL     1      -7.925  -7.660   3.905  1.00  0.00     0.313 HD
HETATM   86  H   UNL     1      -8.120  -9.232   4.213  1.00  0.00     0.313 HD
ENDBRANCH  13  84
ENDBRANCH   7   8
ENDBRANCH   1   7
BRANCH   2  87
HETATM   87  C   UNL     1      -6.672  -4.177   2.679  1.00  0.00     0.198 C 
BRANCH  87  88
HETATM   88  O   UNL     1      -5.782  -4.870   1.815  1.00  0.00    -0.398 OA
HETATM   89  H   UNL     1      -4.958  -5.044   2.304  1.00  0.00     0.209 HD
ENDBRANCH  87  88
ENDBRANCH   2  87
BRANCH   3  90
HETATM   90  O   UNL     1      -5.614  -5.673   6.815  1.00  0.00    -0.391 OA
HETATM   91  H   UNL     1      -5.149  -6.475   7.134  1.00  0.00     0.210 HD
ENDBRANCH   3  90
BRANCH   4  92
HETATM   92  N   UNL     1      -4.132  -3.185   6.877  1.00  0.00     0.090 N 
HETATM   93  H   UNL     1      -3.168  -3.530   6.890  1.00  0.00     0.313 HD
HETATM   94  H   UNL     1      -4.562  -3.688   7.664  1.00  0.00     0.313 HD
ENDBRANCH   4  92
BRANCH   5  95
HETATM   95  O   UNL     1      -6.688  -2.365   6.620  1.00  0.00    -0.348 OA
BRANCH  95  96
HETATM   96  C   UNL     1      -8.123  -2.423   6.870  1.00  0.00     0.186 C 
HETATM   97  C   UNL     1      -8.398  -2.749   8.349  1.00  0.00     0.180 C 
HETATM   98  O   UNL     1      -9.218  -1.774   8.994  1.00  0.00    -0.349 OA
HETATM   99  C   UNL     1     -10.393  -1.345   8.309  1.00  0.00     0.286 C 
HETATM  100  C   UNL     1     -10.171  -0.758   6.845  1.00  0.00     0.167 C 
HETATM  101  C   UNL     1      -8.670  -1.006   6.511  1.00  0.00     0.177 C 
BRANCH  97 102
HETATM  102  C   UNL     1      -9.012  -4.139   8.571  1.00  0.00     0.198 C 
BRANCH 102 103
HETATM  103  O   UNL     1      -8.217  -5.140   7.938  1.00  0.00    -0.398 OA
HETATM  104  H   UNL     1      -8.727  -5.490   7.181  1.00  0.00     0.209 HD
ENDBRANCH 102 103
ENDBRANCH  97 102
BRANCH  99 105
HETATM  105  O   UNL     1     -10.922  -0.334   9.166  1.00  0.00    -0.348 OA
BRANCH 105 106
HETATM  106  C   UNL     1     -12.194  -0.612   9.731  1.00  0.00     0.186 C 
HETATM  107  C   UNL     1     -12.056  -0.872  11.245  1.00  0.00     0.176 C 
HETATM  108  O   UNL     1     -13.213  -0.424  11.990  1.00  0.00    -0.379 OA
HETATM  109  C   UNL     1     -14.448  -0.598  11.287  1.00  0.00     0.206 C 
HETATM  110  C   UNL     1     -14.518   0.292  10.027  1.00  0.00     0.272 C 
HETATM  111  C   UNL     1     -13.100   0.613   9.506  1.00  0.00     0.184 C 
BRANCH 107 112
HETATM  112  C   UNL     1     -11.789  -2.344  11.581  1.00  0.00     0.198 C 
BRANCH 112 113
HETATM  113  O   UNL     1     -10.390  -2.617  11.495  1.00  0.00    -0.398 OA
HETATM  114  H   UNL     1     -10.231  -3.405  12.050  1.00  0.00     0.209 HD
ENDBRANCH 112 113
ENDBRANCH 107 112
BRANCH 110 115
HETATM  115  N   UNL     1     -15.283   1.529  10.271  1.00  0.00     0.087 N 
HETATM  116  H   UNL     1     -15.986   1.618   9.533  1.00  0.00     0.313 HD
HETATM  117  H   UNL     1     -14.658   2.318  10.077  1.00  0.00     0.313 HD
ENDBRANCH 110 115
BRANCH 111 118
HETATM  118  O   UNL     1     -12.588   1.792  10.159  1.00  0.00    -0.391 OA
HETATM  119  H   UNL     1     -11.669   1.605  10.426  1.00  0.00     0.210 HD
ENDBRANCH 111 118
ENDBRANCH 105 106
ENDBRANCH  99 105
BRANCH 100 120
HETATM  120  N   UNL     1     -10.614   0.679   6.790  1.00  0.00    -0.389 N 
HETATM  121  H   UNL     1     -10.432   1.061   7.724  1.00  0.00     0.159 HD
BRANCH 120 122
HETATM  122  C   UNL     1     -10.500   1.598   5.650  1.00  0.00     0.073 C 
BRANCH 122 123
HETATM  123  C   UNL     1      -9.890   3.074   5.817  1.00  0.00     0.049 C 
HETATM  124  C   UNL     1     -10.521   3.909   4.691  1.00  0.00     0.029 C 
BRANCH 123 125
HETATM  125  C   UNL     1      -8.268   3.323   5.873  1.00  0.00     0.039 C 
BRANCH 125 126
HETATM  126  C   UNL     1      -7.284   3.253   4.533  1.00  0.00     0.019 C 
HETATM  127  C   UNL     1      -5.940   2.813   5.176  1.00  0.00     0.023 C 
BRANCH 126 128
HETATM  128  C   UNL     1      -7.662   2.259   3.391  1.00  0.00     0.137 C 
HETATM  129  O   UNL     1      -8.188   2.717   2.369  1.00  0.00    -0.297 OA
BRANCH 128 130
HETATM  130  C   UNL     1      -7.429   0.741   3.511  1.00  0.00     0.109 C 
BRANCH 130 131
HETATM  131  C   UNL     1      -8.573  -0.099   2.898  1.00  0.00     0.279 C 
BRANCH 131 132
HETATM  132  N   UNL     1      -8.755  -0.129   1.433  1.00  0.00     0.080 N 
HETATM  133  C   UNL     1     -10.177   0.067   1.122  1.00  0.00     0.309 C 
HETATM  134  C   UNL     1      -8.321  -1.375   0.825  1.00  0.00     0.309 C 
ENDBRANCH 131 132
ENDBRANCH 130 131
ENDBRANCH 128 130
ENDBRANCH 126 128
BRANCH 126 135
HETATM  135  C   UNL     1      -7.093   4.697   3.774  1.00  0.00     0.033 C 
BRANCH 135 136
HETATM  136  C   UNL     1      -6.787   6.183   4.477  1.00  0.00     0.019 C 
HETATM  137  C   UNL     1      -7.126   7.289   3.462  1.00  0.00     0.023 C 
BRANCH 136 138
HETATM  138  C   UNL     1      -7.533   6.548   5.793  1.00  0.00     0.137 C 
HETATM  139  O   UNL     1      -8.735   6.839   5.754  1.00  0.00    -0.297 OA
BRANCH 138 140
HETATM  140  C   UNL     1      -6.842   6.547   7.134  1.00  0.00     0.109 C 
BRANCH 140 141
HETATM  141  C   UNL     1      -7.790   6.489   8.344  1.00  0.00     0.279 C 
BRANCH 141 142
HETATM  142  N   UNL     1      -7.727   7.724   9.156  1.00  0.00     0.080 N 
HETATM  143  C   UNL     1      -8.936   8.529   8.948  1.00  0.00     0.309 C 
HETATM  144  C   UNL     1      -6.549   8.528   8.822  1.00  0.00     0.309 C 
ENDBRANCH 141 142
ENDBRANCH 140 141
ENDBRANCH 138 140
ENDBRANCH 136 138
BRANCH 136 145
HETATM  145  C   UNL     1      -5.212   6.240   4.797  1.00  0.00     0.033 C 
BRANCH 145 146
HETATM  146  C   UNL     1      -3.914   6.114   3.795  1.00  0.00     0.019 C 
HETATM  147  C   UNL     1      -3.088   4.932   4.373  1.00  0.00     0.023 C 
BRANCH 146 148
HETATM  148  C   UNL     1      -4.164   5.862   2.263  1.00  0.00     0.033 C 
BRANCH 148 149
HETATM  149  C   UNL     1      -3.768   4.573   1.436  1.00  0.00     0.014 C 
HETATM  150  C   UNL     1      -4.639   4.592   0.149  1.00  0.00     0.023 C 
HETATM  151  C   UNL     1      -4.127   3.236   2.119  1.00  0.00     0.023 C 
BRANCH 149 152
HETATM  152  C   UNL     1      -2.261   4.533   1.068  1.00  0.00     0.136 C 
HETATM  153  O   UNL     1      -1.573   3.562   1.394  1.00  0.00    -0.297 OA
BRANCH 152 154
HETATM  154  C   UNL     1      -1.596   5.729   0.389  1.00  0.00     0.109 C 
BRANCH 154 155
HETATM  155  C   UNL     1      -0.216   5.345  -0.172  1.00  0.00     0.279 C 
BRANCH 155 156
HETATM  156  N   UNL     1       0.828   6.346   0.138  1.00  0.00     0.080 N 
HETATM  157  C   UNL     1       2.033   6.153  -0.670  1.00  0.00     0.309 C 
HETATM  158  C   UNL     1       0.311   7.702  -0.085  1.00  0.00     0.309 C 
ENDBRANCH 155 156
ENDBRANCH 154 155
ENDBRANCH 152 154
ENDBRANCH 149 152
ENDBRANCH 148 149
ENDBRANCH 146 148
BRANCH 146 159
HETATM  159  C   UNL     1      -3.040   7.390   4.014  1.00  0.00     0.137 C 
HETATM  160  O   UNL     1      -1.975   7.346   4.639  1.00  0.00    -0.297 OA
BRANCH 159 161
HETATM  161  C   UNL     1      -3.612   8.735   3.619  1.00  0.00     0.109 C 
BRANCH 161 162
HETATM  162  C   UNL     1      -2.564   9.849   3.570  1.00  0.00     0.279 C 
BRANCH 162 163
HETATM  163  N   UNL     1      -3.252  11.158   3.551  1.00  0.00     0.080 N 
HETATM  164  C   UNL     1      -2.305  12.263   3.433  1.00  0.00     0.309 C 
HETATM  165  C   UNL     1      -4.075  11.335   4.749  1.00  0.00     0.309 C 
ENDBRANCH 162 163
ENDBRANCH 161 162
ENDBRANCH 159 161
ENDBRANCH 146 159
ENDBRANCH 145 146
ENDBRANCH 136 145
ENDBRANCH 135 136
ENDBRANCH 126 135
ENDBRANCH 125 126
ENDBRANCH 123 125
BRANCH 123 166
HETATM  166  C   UNL     1     -10.379   3.380   7.262  1.00  0.00     0.141 C 
HETATM  167  O   UNL     1      -9.792   2.926   8.254  1.00  0.00    -0.297 OA
BRANCH 166 168
HETATM  168  C   UNL     1     -11.663   4.142   7.483  1.00  0.00     0.110 C 
BRANCH 168 169
HETATM  169  C   UNL     1     -11.339   5.555   7.913  1.00  0.00     0.279 C 
BRANCH 169 170
HETATM  170  N   UNL     1     -12.282   6.157   8.866  1.00  0.00     0.080 N 
HETATM  171  C   UNL     1     -12.553   7.554   8.527  1.00  0.00     0.309 C 
HETATM  172  C   UNL     1     -11.715   6.098  10.217  1.00  0.00     0.309 C 
ENDBRANCH 169 170
ENDBRANCH 168 169
ENDBRANCH 166 168
ENDBRANCH 123 166
ENDBRANCH 122 123
ENDBRANCH 120 122
ENDBRANCH 100 120
BRANCH 101 173
HETATM  173  O   UNL     1      -7.866  -0.020   7.194  1.00  0.00    -0.391 OA
HETATM  174  H   UNL     1      -8.482   0.500   7.748  1.00  0.00     0.210 HD
ENDBRANCH 101 173
ENDBRANCH  95  96
ENDBRANCH   5  95
TORSDOF 88
ENDMDL
MODEL 5
REMARK VINA RESULT:      -4.5     11.702     23.203
REMARK WARNING: 32 MAX_TORS EXCEEDED!!!
REMARK  88 active torsions:
REMARK  status: ('A' for Active; 'I' for Inactive)
REMARK    1  A    between atoms: C_1  and  O_28 
REMARK    2  A    between atoms: C_2  and  C_6 
REMARK    3  A    between atoms: C_3  and  O_8 
REMARK    4  A    between atoms: C_4  and  N_10 
REMARK    5  A    between atoms: C_5  and  O_11 
REMARK    6  A    between atoms: C_6  and  O_65 
REMARK    7  A    between atoms: O_11  and  C_18 
REMARK    8  A    between atoms: O_13  and  C_16 
REMARK    9  A    between atoms: C_15  and  C_21 
REMARK   10  A    between atoms: O_17  and  C_20 
REMARK   11  A    between atoms: O_17  and  C_39 
REMARK   12  A    between atoms: N_19  and  C_22 
REMARK   13  A    between atoms: N_19  and  C_161 
REMARK   14  A    between atoms: C_21  and  O_67 
REMARK   15  A    between atoms: O_24  and  C_27 
REMARK   16  A    between atoms: C_26  and  C_32 
REMARK   17  A    between atoms: O_28  and  C_31 
REMARK   18  A    between atoms: C_29  and  O_49 
REMARK   19  A    between atoms: N_30  and  C_33 
REMARK   20  A    between atoms: C_32  and  O_63 
REMARK   21  A    between atoms: O_35  and  C_38 
REMARK   22  A    between atoms: C_37  and  C_42 
REMARK   23  A    between atoms: N_40  and  C_43 
REMARK   24  A    between atoms: C_42  and  O_69 
REMARK   25  A    between atoms: O_45  and  C_48 
REMARK   26  A    between atoms: C_47  and  C_53 
REMARK   27  A    between atoms: O_49  and  C_52 
REMARK   28  A    between atoms: N_51  and  C_54 
REMARK   29  A    between atoms: N_51  and  C_71 
REMARK   30  A    between atoms: C_53  and  O_61 
REMARK   31  A    between atoms: C_71  and  C_73 
REMARK   32  A    between atoms: C_73  and  C_74 
REMARK   33  A    between atoms: C_73  and  C_83 
REMARK   34  A    between atoms: C_74  and  C_75 
REMARK   35  A    between atoms: C_75  and  C_76 
REMARK   36  A    between atoms: C_75  and  C_87 
REMARK   37  A    between atoms: C_76  and  C_77 
REMARK   38  A    between atoms: C_77  and  C_78 
REMARK   39  A    between atoms: C_77  and  C_91 
REMARK   40  A    between atoms: C_78  and  C_79 
REMARK   41  A    between atoms: C_79  and  C_80 
REMARK   42  A    between atoms: C_79  and  C_95 
REMARK   43  A    between atoms: C_80  and  C_81 
REMARK   44  A    between atoms: C_81  and  C_99 
REMARK   45  A    between atoms: C_83  and  C_84 
REMARK   46  A    between atoms: C_84  and  C_85 
REMARK   47  A    between atoms: C_85  and  N_103 
REMARK   48  A    between atoms: C_87  and  C_88 
REMARK   49  A    between atoms: C_88  and  C_89 
REMARK   50  A    between atoms: C_89  and  N_104 
REMARK   51  A    between atoms: C_91  and  C_92 
REMARK   52  A    between atoms: C_92  and  C_93 
REMARK   53  A    between atoms: C_93  and  N_105 
REMARK   54  A    between atoms: C_95  and  C_96 
REMARK   55  A    between atoms: C_96  and  C_97 
REMARK   56  A    between atoms: C_97  and  N_106 
REMARK   57  A    between atoms: C_99  and  C_100 
REMARK   58  A    between atoms: C_100  and  C_101 
REMARK   59  A    between atoms: C_101  and  N_107 
REMARK   60  A    between atoms: N_126  and  C_129 
REMARK   61  A    between atoms: C_129  and  C_135 
REMARK   62  A    between atoms: C_130  and  C_135 
REMARK   63  A    between atoms: C_130  and  C_142 
REMARK   64  A    between atoms: N_132  and  C_139 
REMARK   65  A    between atoms: C_136  and  C_137 
REMARK   66  A    between atoms: C_136  and  C_146 
REMARK   67  A    between atoms: C_137  and  C_139 
REMARK   68  A    between atoms: N_141  and  C_152 
REMARK   69  A    between atoms: C_142  and  C_153 
REMARK   70  A    between atoms: C_142  and  C_159 
REMARK   71  A    between atoms: C_144  and  C_152 
REMARK   72  A    between atoms: C_144  and  C_156 
REMARK   73  A    between atoms: C_146  and  C_162 
REMARK   74  A    between atoms: C_146  and  C_153 
REMARK   75  A    between atoms: C_148  and  C_156 
REMARK   76  A    between atoms: C_148  and  C_149 
REMARK   77  A    between atoms: C_149  and  C_163 
REMARK   78  A    between atoms: C_150  and  C_161 
REMARK   79  A    between atoms: C_150  and  C_159 
REMARK   80  A    between atoms: C_150  and  C_160 
REMARK   81  A    between atoms: C_151  and  N_157 
REMARK   82  A    between atoms: C_151  and  C_154 
REMARK   83  A    between atoms: C_154  and  C_160 
REMARK   84  A    between atoms: C_162  and  C_163 
REMARK   85  A    between atoms: C_163  and  C_169 
REMARK   86  A    between atoms: C_166  and  C_171 
REMARK   87  A    between atoms: C_166  and  C_169 
REMARK   88  A    between atoms: N_167  and  C_171 
ROOT
HETATM    1  C   UNL     1      -2.751 -10.090  -1.184  1.00  0.00     0.186 C 
HETATM    2  C   UNL     1      -3.897 -10.673  -0.327  1.00  0.00     0.179 C 
HETATM    3  C   UNL     1      -2.897  -8.561  -1.330  1.00  0.00     0.187 C 
HETATM    4  C   UNL     1      -4.356  -8.156  -1.651  1.00  0.00     0.303 C 
HETATM    5  C   UNL     1      -5.346  -8.742  -0.584  1.00  0.00     0.296 C 
HETATM    6  O   UNL     1      -4.674  -9.640   0.306  1.00  0.00    -0.349 OA
ENDROOT
BRANCH   1   7
HETATM    7  O   UNL     1      -1.507 -10.386  -0.534  1.00  0.00    -0.348 OA
BRANCH   7   8
HETATM    8  C   UNL     1      -0.402 -10.630  -1.417  1.00  0.00     0.296 C 
HETATM    9  O   UNL     1      -0.047 -12.001  -1.252  1.00  0.00    -0.349 OA
HETATM   10  C   UNL     1       1.201 -12.424  -1.825  1.00  0.00     0.179 C 
HETATM   11  C   UNL     1       2.369 -11.431  -1.650  1.00  0.00     0.186 C 
HETATM   12  C   UNL     1       2.030 -10.324  -0.659  1.00  0.00     0.187 C 
HETATM   13  C   UNL     1       0.751  -9.613  -1.114  1.00  0.00     0.303 C 
BRANCH  10  14
HETATM   14  C   UNL     1       0.962 -12.780  -3.301  1.00  0.00     0.198 C 
BRANCH  14  15
HETATM   15  O   UNL     1       2.156 -12.594  -4.060  1.00  0.00    -0.398 OA
HETATM   16  H   UNL     1       2.898 -12.871  -3.487  1.00  0.00     0.209 HD
ENDBRANCH  14  15
ENDBRANCH  10  14
BRANCH  11  17
HETATM   17  O   UNL     1       3.512 -12.122  -1.121  1.00  0.00    -0.348 OA
BRANCH  17  18
HETATM   18  C   UNL     1       4.749 -11.641  -1.635  1.00  0.00     0.296 C 
HETATM   19  O   UNL     1       4.500 -10.947  -2.864  1.00  0.00    -0.351 OA
HETATM   20  C   UNL     1       5.584 -10.070  -3.228  1.00  0.00     0.150 C 
HETATM   21  C   UNL     1       6.941 -10.674  -2.817  1.00  0.00     0.068 C 
HETATM   22  C   UNL     1       6.860 -12.208  -2.873  1.00  0.00     0.158 C 
HETATM   23  C   UNL     1       5.813 -12.790  -1.864  1.00  0.00     0.303 C 
BRANCH  20  24
HETATM   24  C   UNL     1       5.324  -8.643  -2.722  1.00  0.00     0.196 C 
BRANCH  24  25
HETATM   25  O   UNL     1       6.145  -8.325  -1.601  1.00  0.00    -0.398 OA
HETATM   26  H   UNL     1       6.175  -9.127  -1.047  1.00  0.00     0.209 HD
ENDBRANCH  24  25
ENDBRANCH  20  24
BRANCH  22  27
HETATM   27  O   UNL     1       6.496 -12.560  -4.218  1.00  0.00    -0.393 OA
HETATM   28  H   UNL     1       7.295 -12.458  -4.773  1.00  0.00     0.210 HD
ENDBRANCH  22  27
BRANCH  23  29
HETATM   29  N   UNL     1       5.215 -14.066  -2.369  1.00  0.00     0.096 N 
HETATM   30  H   UNL     1       5.887 -14.435  -3.041  1.00  0.00     0.316 HD
BRANCH  29  31
HETATM   31  C   UNL     1       4.848 -15.110  -1.375  1.00  0.00     0.287 C 
BRANCH  31  32
HETATM   32  C   UNL     1       5.571 -16.538  -1.585  1.00  0.00     0.044 C 
HETATM   33  C   UNL     1       5.087 -17.154  -2.907  1.00  0.00     0.025 C 
BRANCH  32  34
HETATM   34  C   UNL     1       5.324 -17.553  -0.342  1.00  0.00     0.035 C 
BRANCH  34  35
HETATM   35  C   UNL     1       5.697 -19.139  -0.333  1.00  0.00     0.019 C 
HETATM   36  C   UNL     1       4.523 -19.781  -1.122  1.00  0.00     0.023 C 
BRANCH  35  37
HETATM   37  C   UNL     1       5.707 -19.670   1.200  1.00  0.00     0.033 C 
BRANCH  37  38
HETATM   38  C   UNL     1       4.450 -20.197   2.113  1.00  0.00     0.019 C 
HETATM   39  C   UNL     1       3.417 -19.069   2.266  1.00  0.00     0.023 C 
BRANCH  38  40
HETATM   40  C   UNL     1       5.079 -20.540   3.547  1.00  0.00     0.033 C 
BRANCH  40  41
HETATM   41  C   UNL     1       4.411 -20.517   5.030  1.00  0.00     0.019 C 
HETATM   42  C   UNL     1       4.242 -19.009   5.359  1.00  0.00     0.023 C 
BRANCH  41  43
HETATM   43  C   UNL     1       3.040 -21.248   5.226  1.00  0.00     0.033 C 
BRANCH  43  44
HETATM   44  C   UNL     1       2.078 -21.127   6.469  1.00  0.00     0.014 C 
HETATM   45  C   UNL     1       1.269 -19.816   6.269  1.00  0.00     0.023 C 
HETATM   46  C   UNL     1       2.798 -20.932   7.818  1.00  0.00     0.023 C 
BRANCH  44  47
HETATM   47  C   UNL     1       1.126 -22.341   6.598  1.00  0.00     0.136 C 
HETATM   48  O   UNL     1       1.589 -23.484   6.662  1.00  0.00    -0.297 OA
BRANCH  47  49
HETATM   49  C   UNL     1      -0.387 -22.148   6.548  1.00  0.00     0.109 C 
BRANCH  49  50
HETATM   50  C   UNL     1      -1.112 -23.376   7.123  1.00  0.00     0.279 C 
BRANCH  50  51
HETATM   51  N   UNL     1      -2.563 -23.156   7.292  1.00  0.00     0.080 N 
HETATM   52  C   UNL     1      -3.164 -24.130   8.204  1.00  0.00     0.309 C 
HETATM   53  C   UNL     1      -2.814 -21.802   7.800  1.00  0.00     0.309 C 
ENDBRANCH  50  51
ENDBRANCH  49  50
ENDBRANCH  47  49
ENDBRANCH  44  47
ENDBRANCH  43  44
ENDBRANCH  41  43
BRANCH  41  54
HETATM   54  C   UNL     1       5.494 -21.050   6.026  1.00  0.00     0.137 C 
HETATM   55  O   UNL     1       5.622 -22.247   6.260  1.00  0.00    -0.297 OA
BRANCH  54  56
HETATM   56  C   UNL     1       6.259 -20.043   6.861  1.00  0.00     0.109 C 
BRANCH  56  57
HETATM   57  C   UNL     1       6.748 -20.619   8.190  1.00  0.00     0.279 C 
BRANCH  57  58
HETATM   58  N   UNL     1       8.190 -20.331   8.339  1.00  0.00     0.080 N 
HETATM   59  C   UNL     1       8.750 -19.803   7.093  1.00  0.00     0.309 C 
HETATM   60  C   UNL     1       8.438 -19.396   9.432  1.00  0.00     0.309 C 
ENDBRANCH  57  58
ENDBRANCH  56  57
ENDBRANCH  54  56
ENDBRANCH  41  54
ENDBRANCH  40  41
ENDBRANCH  38  40
BRANCH  38  61
HETATM   61  C   UNL     1       3.670 -21.442   1.611  1.00  0.00     0.137 C 
HETATM   62  O   UNL     1       4.291 -22.436   1.216  1.00  0.00    -0.297 OA
BRANCH  61  63
HETATM   63  C   UNL     1       2.162 -21.497   1.616  1.00  0.00     0.109 C 
BRANCH  63  64
HETATM   64  C   UNL     1       1.535 -21.536   0.215  1.00  0.00     0.279 C 
BRANCH  64  65
HETATM   65  N   UNL     1       0.405 -20.589   0.094  1.00  0.00     0.080 N 
HETATM   66  C   UNL     1      -0.204 -20.314   1.398  1.00  0.00     0.309 C 
HETATM   67  C   UNL     1       0.866 -19.330  -0.500  1.00  0.00     0.309 C 
ENDBRANCH  64  65
ENDBRANCH  63  64
ENDBRANCH  61  63
ENDBRANCH  38  61
ENDBRANCH  37  38
ENDBRANCH  35  37
BRANCH  35  68
HETATM   68  C   UNL     1       7.041 -19.601  -0.972  1.00  0.00     0.137 C 
HETATM   69  O   UNL     1       8.085 -19.428  -0.333  1.00  0.00    -0.297 OA
BRANCH  68  70
HETATM   70  C   UNL     1       7.116 -20.228  -2.372  1.00  0.00     0.109 C 
BRANCH  70  71
HETATM   71  C   UNL     1       7.494 -21.729  -2.335  1.00  0.00     0.279 C 
BRANCH  71  72
HETATM   72  N   UNL     1       6.940 -22.595  -1.274  1.00  0.00     0.080 N 
HETATM   73  C   UNL     1       5.872 -23.463  -1.741  1.00  0.00     0.309 C 
HETATM   74  C   UNL     1       8.015 -23.440  -0.730  1.00  0.00     0.309 C 
ENDBRANCH  71  72
ENDBRANCH  70  71
ENDBRANCH  68  70
ENDBRANCH  35  68
ENDBRANCH  34  35
ENDBRANCH  32  34
BRANCH  32  75
HETATM   75  C   UNL     1       7.078 -16.180  -1.554  1.00  0.00     0.138 C 
HETATM   76  O   UNL     1       7.534 -15.459  -0.657  1.00  0.00    -0.297 OA
BRANCH  75  77
HETATM   77  C   UNL     1       7.997 -16.578  -2.688  1.00  0.00     0.109 C 
BRANCH  77  78
HETATM   78  C   UNL     1       8.707 -15.343  -3.210  1.00  0.00     0.279 C 
BRANCH  78  79
HETATM   79  N   UNL     1       9.196 -15.452  -4.592  1.00  0.00     0.080 N 
HETATM   80  C   UNL     1      10.394 -16.290  -4.668  1.00  0.00     0.309 C 
HETATM   81  C   UNL     1       9.495 -14.117  -5.121  1.00  0.00     0.309 C 
ENDBRANCH  78  79
ENDBRANCH  77  78
ENDBRANCH  75  77
ENDBRANCH  32  75
ENDBRANCH  31  32
ENDBRANCH  29  31
ENDBRANCH  23  29
ENDBRANCH  17  18
ENDBRANCH  11  17
BRANCH  12  82
HETATM   82  O   UNL     1       1.897 -10.853   0.667  1.00  0.00    -0.391 OA
HETATM   83  H   UNL     1       1.290 -11.616   0.574  1.00  0.00     0.210 HD
ENDBRANCH  12  82
BRANCH  13  84
HETATM   84  N   UNL     1       0.420  -8.525  -0.171  1.00  0.00     0.090 N 
HETATM   85  H   UNL     1       0.868  -8.780   0.716  1.00  0.00     0.313 HD
HETATM   86  H   UNL     1      -0.585  -8.576   0.043  1.00  0.00     0.313 HD
ENDBRANCH  13  84
ENDBRANCH   7   8
ENDBRANCH   1   7
BRANCH   2  87
HETATM   87  C   UNL     1      -4.762 -11.644  -1.152  1.00  0.00     0.198 C 
BRANCH  87  88
HETATM   88  O   UNL     1      -5.591 -12.444  -0.321  1.00  0.00    -0.398 OA
HETATM   89  H   UNL     1      -6.393 -11.934  -0.109  1.00  0.00     0.209 HD
ENDBRANCH  87  88
ENDBRANCH   2  87
BRANCH   3  90
HETATM   90  O   UNL     1      -2.448  -7.889  -0.142  1.00  0.00    -0.391 OA
HETATM   91  H   UNL     1      -1.977  -7.081  -0.435  1.00  0.00     0.210 HD
ENDBRANCH   3  90
BRANCH   4  92
HETATM   92  N   UNL     1      -4.484  -6.689  -1.819  1.00  0.00     0.090 N 
HETATM   93  H   UNL     1      -4.049  -6.220  -1.020  1.00  0.00     0.313 HD
HETATM   94  H   UNL     1      -5.481  -6.472  -1.692  1.00  0.00     0.313 HD
ENDBRANCH   4  92
BRANCH   5  95
HETATM   95  O   UNL     1      -5.907  -7.697   0.239  1.00  0.00    -0.348 OA
BRANCH  95  96
HETATM   96  C   UNL     1      -6.137  -8.028   1.640  1.00  0.00     0.186 C 
HETATM   97  C   UNL     1      -5.194  -7.216   2.547  1.00  0.00     0.180 C 
HETATM   98  O   UNL     1      -5.887  -6.446   3.528  1.00  0.00    -0.349 OA
HETATM   99  C   UNL     1      -6.918  -7.096   4.268  1.00  0.00     0.286 C 
HETATM  100  C   UNL     1      -8.080  -7.763   3.406  1.00  0.00     0.167 C 
HETATM  101  C   UNL     1      -7.625  -7.651   1.921  1.00  0.00     0.177 C 
BRANCH  97 102
HETATM  102  C   UNL     1      -4.126  -8.069   3.248  1.00  0.00     0.198 C 
BRANCH 102 103
HETATM  103  O   UNL     1      -3.088  -8.416   2.333  1.00  0.00    -0.398 OA
HETATM  104  H   UNL     1      -2.666  -7.586   2.033  1.00  0.00     0.209 HD
ENDBRANCH 102 103
ENDBRANCH  97 102
BRANCH  99 105
HETATM  105  O   UNL     1      -7.449  -6.050   5.080  1.00  0.00    -0.348 OA
BRANCH 105 106
HETATM  106  C   UNL     1      -6.771  -4.806   5.000  1.00  0.00     0.186 C 
HETATM  107  C   UNL     1      -7.747  -3.651   5.306  1.00  0.00     0.176 C 
HETATM  108  O   UNL     1      -7.098  -2.540   5.969  1.00  0.00    -0.379 OA
HETATM  109  C   UNL     1      -5.755  -2.318   5.529  1.00  0.00     0.206 C 
HETATM  110  C   UNL     1      -4.829  -3.497   5.903  1.00  0.00     0.272 C 
HETATM  111  C   UNL     1      -5.639  -4.804   6.043  1.00  0.00     0.184 C 
BRANCH 107 112
HETATM  112  C   UNL     1      -8.472  -3.130   4.059  1.00  0.00     0.198 C 
BRANCH 112 113
HETATM  113  O   UNL     1      -8.850  -4.223   3.222  1.00  0.00    -0.398 OA
HETATM  114  H   UNL     1      -8.826  -3.886   2.306  1.00  0.00     0.209 HD
ENDBRANCH 112 113
ENDBRANCH 107 112
BRANCH 110 115
HETATM  115  N   UNL     1      -4.058  -3.220   7.130  1.00  0.00     0.087 N 
HETATM  116  H   UNL     1      -4.499  -2.432   7.611  1.00  0.00     0.313 HD
HETATM  117  H   UNL     1      -3.157  -2.826   6.841  1.00  0.00     0.313 HD
ENDBRANCH 110 115
BRANCH 111 118
HETATM  118  O   UNL     1      -6.142  -4.934   7.388  1.00  0.00    -0.391 OA
HETATM  119  H   UNL     1      -6.661  -5.758   7.430  1.00  0.00     0.210 HD
ENDBRANCH 111 118
ENDBRANCH 105 106
ENDBRANCH  99 105
BRANCH 100 120
HETATM  120  N   UNL     1      -9.400  -7.114   3.726  1.00  0.00    -0.389 N 
HETATM  121  H   UNL     1      -9.425  -6.249   3.175  1.00  0.00     0.159 HD
BRANCH 120 122
HETATM  122  C   UNL     1     -10.679  -7.788   3.984  1.00  0.00     0.073 C 
BRANCH 122 123
HETATM  123  C   UNL     1     -11.584  -7.414   5.257  1.00  0.00     0.049 C 
HETATM  124  C   UNL     1     -12.705  -6.514   4.713  1.00  0.00     0.029 C 
BRANCH 123 125
HETATM  125  C   UNL     1     -10.923  -6.751   6.606  1.00  0.00     0.039 C 
BRANCH 125 126
HETATM  126  C   UNL     1     -11.770  -6.508   8.017  1.00  0.00     0.019 C 
HETATM  127  C   UNL     1     -10.752  -5.661   8.830  1.00  0.00     0.023 C 
BRANCH 126 128
HETATM  128  C   UNL     1     -13.131  -5.750   7.939  1.00  0.00     0.137 C 
HETATM  129  O   UNL     1     -13.108  -4.520   7.809  1.00  0.00    -0.297 OA
BRANCH 128 130
HETATM  130  C   UNL     1     -14.485  -6.478   8.047  1.00  0.00     0.109 C 
BRANCH 130 131
HETATM  131  C   UNL     1     -15.565  -5.893   7.109  1.00  0.00     0.279 C 
BRANCH 131 132
HETATM  132  N   UNL     1     -16.674  -5.099   7.675  1.00  0.00     0.080 N 
HETATM  133  C   UNL     1     -16.658  -3.757   7.077  1.00  0.00     0.309 C 
HETATM  134  C   UNL     1     -16.601  -4.957   9.119  1.00  0.00     0.309 C 
ENDBRANCH 131 132
ENDBRANCH 130 131
ENDBRANCH 128 130
ENDBRANCH 126 128
BRANCH 126 135
HETATM  135  C   UNL     1     -12.116  -7.893   8.829  1.00  0.00     0.033 C 
BRANCH 135 136
HETATM  136  C   UNL     1     -11.117  -8.741   9.868  1.00  0.00     0.019 C 
HETATM  137  C   UNL     1      -9.722  -8.856   9.228  1.00  0.00     0.023 C 
BRANCH 136 138
HETATM  138  C   UNL     1     -10.899  -8.186  11.305  1.00  0.00     0.137 C 
HETATM  139  O   UNL     1      -9.830  -8.402  11.889  1.00  0.00    -0.297 OA
BRANCH 138 140
HETATM  140  C   UNL     1     -11.949  -7.370  12.018  1.00  0.00     0.109 C 
BRANCH 140 141
HETATM  141  C   UNL     1     -12.076  -7.662  13.523  1.00  0.00     0.279 C 
BRANCH 141 142
HETATM  142  N   UNL     1     -12.194  -6.421  14.319  1.00  0.00     0.080 N 
HETATM  143  C   UNL     1     -12.102  -5.247  13.444  1.00  0.00     0.309 C 
HETATM  144  C   UNL     1     -11.155  -6.339  15.348  1.00  0.00     0.309 C 
ENDBRANCH 141 142
ENDBRANCH 140 141
ENDBRANCH 138 140
ENDBRANCH 136 138
BRANCH 136 145
HETATM  145  C   UNL     1     -11.739 -10.216  10.022  1.00  0.00     0.033 C 
BRANCH 145 146
HETATM  146  C   UNL     1     -13.271 -10.697  10.379  1.00  0.00     0.019 C 
HETATM  147  C   UNL     1     -14.149  -9.450  10.084  1.00  0.00     0.023 C 
BRANCH 146 148
HETATM  148  C   UNL     1     -13.870 -11.936   9.620  1.00  0.00     0.033 C 
BRANCH 148 149
HETATM  149  C   UNL     1     -13.123 -13.286   9.269  1.00  0.00     0.014 C 
HETATM  150  C   UNL     1     -14.229 -14.363   9.083  1.00  0.00     0.023 C 
HETATM  151  C   UNL     1     -12.237 -13.843  10.403  1.00  0.00     0.023 C 
BRANCH 149 152
HETATM  152  C   UNL     1     -12.253 -13.178   7.990  1.00  0.00     0.136 C 
HETATM  153  O   UNL     1     -12.687 -12.586   6.998  1.00  0.00    -0.297 OA
BRANCH 152 154
HETATM  154  C   UNL     1     -10.900 -13.882   7.910  1.00  0.00     0.109 C 
BRANCH 154 155
HETATM  155  C   UNL     1     -10.858 -14.859   6.722  1.00  0.00     0.279 C 
BRANCH 155 156
HETATM  156  N   UNL     1     -10.902 -16.277   7.143  1.00  0.00     0.080 N 
HETATM  157  C   UNL     1     -10.463 -16.454   8.528  1.00  0.00     0.309 C 
HETATM  158  C   UNL     1     -12.264 -16.805   6.998  1.00  0.00     0.309 C 
ENDBRANCH 155 156
ENDBRANCH 154 155
ENDBRANCH 152 154
ENDBRANCH 149 152
ENDBRANCH 148 149
ENDBRANCH 146 148
BRANCH 146 159
HETATM  159  C   UNL     1     -13.337 -10.906  11.926  1.00  0.00     0.137 C 
HETATM  160  O   UNL     1     -12.314 -11.056  12.603  1.00  0.00    -0.297 OA
BRANCH 159 161
HETATM  161  C   UNL     1     -14.689 -11.123  12.569  1.00  0.00     0.109 C 
BRANCH 161 162
HETATM  162  C   UNL     1     -14.935 -12.572  12.994  1.00  0.00     0.279 C 
BRANCH 162 163
HETATM  163  N   UNL     1     -14.931 -12.650  14.471  1.00  0.00     0.080 N 
HETATM  164  C   UNL     1     -15.002 -11.324  15.079  1.00  0.00     0.309 C 
HETATM  165  C   UNL     1     -13.744 -13.356  14.957  1.00  0.00     0.309 C 
ENDBRANCH 162 163
ENDBRANCH 161 162
ENDBRANCH 159 161
ENDBRANCH 146 159
ENDBRANCH 145 146
ENDBRANCH 136 145
ENDBRANCH 135 136
ENDBRANCH 126 135
ENDBRANCH 125 126
ENDBRANCH 123 125
BRANCH 123 166
HETATM  166  C   UNL     1     -11.999  -8.849   5.694  1.00  0.00     0.141 C 
HETATM  167  O   UNL     1     -11.155  -9.717   5.950  1.00  0.00    -0.297 OA
BRANCH 166 168
HETATM  168  C   UNL     1     -13.454  -9.249   5.695  1.00  0.00     0.110 C 
BRANCH 168 169
HETATM  169  C   UNL     1     -13.717 -10.184   4.536  1.00  0.00     0.279 C 
BRANCH 169 170
HETATM  170  N   UNL     1     -14.135  -9.536   3.285  1.00  0.00     0.080 N 
HETATM  171  C   UNL     1     -15.482  -9.958   2.897  1.00  0.00     0.309 C 
HETATM  172  C   UNL     1     -13.200  -9.894   2.214  1.00  0.00     0.309 C 
ENDBRANCH 169 170
ENDBRANCH 168 169
ENDBRANCH 166 168
ENDBRANCH 123 166
ENDBRANCH 122 123
ENDBRANCH 120 122
ENDBRANCH 100 120
BRANCH 101 173
HETATM  173  O   UNL     1      -7.849  -6.300   1.461  1.00  0.00    -0.391 OA
HETATM  174  H   UNL     1      -7.130  -6.103   0.827  1.00  0.00     0.210 HD
ENDBRANCH 101 173
ENDBRANCH  95  96
ENDBRANCH   5  95
TORSDOF 88
ENDMDL
MODEL 6
REMARK VINA RESULT:      -4.4     12.240     26.286
REMARK WARNING: 32 MAX_TORS EXCEEDED!!!
REMARK  88 active torsions:
REMARK  status: ('A' for Active; 'I' for Inactive)
REMARK    1  A    between atoms: C_1  and  O_28 
REMARK    2  A    between atoms: C_2  and  C_6 
REMARK    3  A    between atoms: C_3  and  O_8 
REMARK    4  A    between atoms: C_4  and  N_10 
REMARK    5  A    between atoms: C_5  and  O_11 
REMARK    6  A    between atoms: C_6  and  O_65 
REMARK    7  A    between atoms: O_11  and  C_18 
REMARK    8  A    between atoms: O_13  and  C_16 
REMARK    9  A    between atoms: C_15  and  C_21 
REMARK   10  A    between atoms: O_17  and  C_20 
REMARK   11  A    between atoms: O_17  and  C_39 
REMARK   12  A    between atoms: N_19  and  C_22 
REMARK   13  A    between atoms: N_19  and  C_161 
REMARK   14  A    between atoms: C_21  and  O_67 
REMARK   15  A    between atoms: O_24  and  C_27 
REMARK   16  A    between atoms: C_26  and  C_32 
REMARK   17  A    between atoms: O_28  and  C_31 
REMARK   18  A    between atoms: C_29  and  O_49 
REMARK   19  A    between atoms: N_30  and  C_33 
REMARK   20  A    between atoms: C_32  and  O_63 
REMARK   21  A    between atoms: O_35  and  C_38 
REMARK   22  A    between atoms: C_37  and  C_42 
REMARK   23  A    between atoms: N_40  and  C_43 
REMARK   24  A    between atoms: C_42  and  O_69 
REMARK   25  A    between atoms: O_45  and  C_48 
REMARK   26  A    between atoms: C_47  and  C_53 
REMARK   27  A    between atoms: O_49  and  C_52 
REMARK   28  A    between atoms: N_51  and  C_54 
REMARK   29  A    between atoms: N_51  and  C_71 
REMARK   30  A    between atoms: C_53  and  O_61 
REMARK   31  A    between atoms: C_71  and  C_73 
REMARK   32  A    between atoms: C_73  and  C_74 
REMARK   33  A    between atoms: C_73  and  C_83 
REMARK   34  A    between atoms: C_74  and  C_75 
REMARK   35  A    between atoms: C_75  and  C_76 
REMARK   36  A    between atoms: C_75  and  C_87 
REMARK   37  A    between atoms: C_76  and  C_77 
REMARK   38  A    between atoms: C_77  and  C_78 
REMARK   39  A    between atoms: C_77  and  C_91 
REMARK   40  A    between atoms: C_78  and  C_79 
REMARK   41  A    between atoms: C_79  and  C_80 
REMARK   42  A    between atoms: C_79  and  C_95 
REMARK   43  A    between atoms: C_80  and  C_81 
REMARK   44  A    between atoms: C_81  and  C_99 
REMARK   45  A    between atoms: C_83  and  C_84 
REMARK   46  A    between atoms: C_84  and  C_85 
REMARK   47  A    between atoms: C_85  and  N_103 
REMARK   48  A    between atoms: C_87  and  C_88 
REMARK   49  A    between atoms: C_88  and  C_89 
REMARK   50  A    between atoms: C_89  and  N_104 
REMARK   51  A    between atoms: C_91  and  C_92 
REMARK   52  A    between atoms: C_92  and  C_93 
REMARK   53  A    between atoms: C_93  and  N_105 
REMARK   54  A    between atoms: C_95  and  C_96 
REMARK   55  A    between atoms: C_96  and  C_97 
REMARK   56  A    between atoms: C_97  and  N_106 
REMARK   57  A    between atoms: C_99  and  C_100 
REMARK   58  A    between atoms: C_100  and  C_101 
REMARK   59  A    between atoms: C_101  and  N_107 
REMARK   60  A    between atoms: N_126  and  C_129 
REMARK   61  A    between atoms: C_129  and  C_135 
REMARK   62  A    between atoms: C_130  and  C_135 
REMARK   63  A    between atoms: C_130  and  C_142 
REMARK   64  A    between atoms: N_132  and  C_139 
REMARK   65  A    between atoms: C_136  and  C_137 
REMARK   66  A    between atoms: C_136  and  C_146 
REMARK   67  A    between atoms: C_137  and  C_139 
REMARK   68  A    between atoms: N_141  and  C_152 
REMARK   69  A    between atoms: C_142  and  C_153 
REMARK   70  A    between atoms: C_142  and  C_159 
REMARK   71  A    between atoms: C_144  and  C_152 
REMARK   72  A    between atoms: C_144  and  C_156 
REMARK   73  A    between atoms: C_146  and  C_162 
REMARK   74  A    between atoms: C_146  and  C_153 
REMARK   75  A    between atoms: C_148  and  C_156 
REMARK   76  A    between atoms: C_148  and  C_149 
REMARK   77  A    between atoms: C_149  and  C_163 
REMARK   78  A    between atoms: C_150  and  C_161 
REMARK   79  A    between atoms: C_150  and  C_159 
REMARK   80  A    between atoms: C_150  and  C_160 
REMARK   81  A    between atoms: C_151  and  N_157 
REMARK   82  A    between atoms: C_151  and  C_154 
REMARK   83  A    between atoms: C_154  and  C_160 
REMARK   84  A    between atoms: C_162  and  C_163 
REMARK   85  A    between atoms: C_163  and  C_169 
REMARK   86  A    between atoms: C_166  and  C_171 
REMARK   87  A    between atoms: C_166  and  C_169 
REMARK   88  A    between atoms: N_167  and  C_171 
ROOT
HETATM    1  C   UNL     1      20.252  -4.706  24.900  1.00  0.00     0.186 C 
HETATM    2  C   UNL     1      20.284  -4.069  23.493  1.00  0.00     0.179 C 
HETATM    3  C   UNL     1      20.089  -3.625  25.989  1.00  0.00     0.187 C 
HETATM    4  C   UNL     1      21.019  -2.414  25.734  1.00  0.00     0.303 C 
HETATM    5  C   UNL     1      20.799  -1.834  24.293  1.00  0.00     0.296 C 
HETATM    6  O   UNL     1      19.929  -2.674  23.526  1.00  0.00    -0.349 OA
ENDROOT
BRANCH   1   7
HETATM    7  O   UNL     1      19.138  -5.608  24.960  1.00  0.00    -0.348 OA
BRANCH   7   8
HETATM    8  C   UNL     1      19.383  -6.913  24.415  1.00  0.00     0.296 C 
HETATM    9  O   UNL     1      19.117  -6.826  23.018  1.00  0.00    -0.349 OA
HETATM   10  C   UNL     1      19.028  -8.062  22.292  1.00  0.00     0.179 C 
HETATM   11  C   UNL     1      18.273  -9.193  23.021  1.00  0.00     0.186 C 
HETATM   12  C   UNL     1      17.531  -8.681  24.250  1.00  0.00     0.187 C 
HETATM   13  C   UNL     1      18.522  -7.976  25.181  1.00  0.00     0.303 C 
BRANCH  10  14
HETATM   14  C   UNL     1      20.447  -8.487  21.881  1.00  0.00     0.198 C 
BRANCH  14  15
HETATM   15  O   UNL     1      20.682  -8.183  20.506  1.00  0.00    -0.398 OA
HETATM   16  H   UNL     1      20.199  -7.355  20.316  1.00  0.00     0.209 HD
ENDBRANCH  14  15
ENDBRANCH  10  14
BRANCH  11  17
HETATM   17  O   UNL     1      17.282  -9.753  22.145  1.00  0.00    -0.348 OA
BRANCH  17  18
HETATM   18  C   UNL     1      17.081  -8.991  20.960  1.00  0.00     0.296 C 
HETATM   19  O   UNL     1      15.820  -8.316  21.053  1.00  0.00    -0.351 OA
HETATM   20  C   UNL     1      15.723  -7.207  20.137  1.00  0.00     0.150 C 
HETATM   21  C   UNL     1      16.462  -7.517  18.821  1.00  0.00     0.068 C 
HETATM   22  C   UNL     1      16.405  -9.027  18.541  1.00  0.00     0.158 C 
HETATM   23  C   UNL     1      17.134  -9.867  19.644  1.00  0.00     0.303 C 
BRANCH  20  24
HETATM   24  C   UNL     1      16.134  -5.895  20.823  1.00  0.00     0.196 C 
BRANCH  24  25
HETATM   25  O   UNL     1      15.576  -5.790  22.130  1.00  0.00    -0.398 OA
HETATM   26  H   UNL     1      15.233  -6.675  22.354  1.00  0.00     0.209 HD
ENDBRANCH  24  25
ENDBRANCH  20  24
BRANCH  22  27
HETATM   27  O   UNL     1      15.016  -9.391  18.482  1.00  0.00    -0.393 OA
HETATM   28  H   UNL     1      14.654  -9.026  17.650  1.00  0.00     0.210 HD
ENDBRANCH  22  27
BRANCH  23  29
HETATM   29  N   UNL     1      16.512 -11.221  19.802  1.00  0.00     0.096 N 
HETATM   30  H   UNL     1      15.519 -11.049  19.955  1.00  0.00     0.316 HD
BRANCH  29  31
HETATM   31  C   UNL     1      16.705 -12.213  18.710  1.00  0.00     0.287 C 
BRANCH  31  32
HETATM   32  C   UNL     1      15.828 -13.561  18.849  1.00  0.00     0.044 C 
HETATM   33  C   UNL     1      15.956 -14.095  20.283  1.00  0.00     0.025 C 
BRANCH  32  34
HETATM   34  C   UNL     1      16.246 -14.693  17.762  1.00  0.00     0.035 C 
BRANCH  34  35
HETATM   35  C   UNL     1      17.742 -15.315  17.580  1.00  0.00     0.019 C 
HETATM   36  C   UNL     1      18.665 -14.092  17.829  1.00  0.00     0.023 C 
BRANCH  35  37
HETATM   37  C   UNL     1      17.908 -15.852  16.059  1.00  0.00     0.033 C 
BRANCH  37  38
HETATM   38  C   UNL     1      19.259 -15.905  15.130  1.00  0.00     0.019 C 
HETATM   39  C   UNL     1      19.536 -14.510  14.545  1.00  0.00     0.023 C 
BRANCH  38  40
HETATM   40  C   UNL     1      18.918 -16.923  13.939  1.00  0.00     0.033 C 
BRANCH  40  41
HETATM   41  C   UNL     1      17.965 -18.241  13.912  1.00  0.00     0.019 C 
HETATM   42  C   UNL     1      18.656 -19.200  12.905  1.00  0.00     0.023 C 
BRANCH  41  43
HETATM   43  C   UNL     1      17.721 -18.995  15.263  1.00  0.00     0.033 C 
BRANCH  43  44
HETATM   44  C   UNL     1      16.982 -20.375  15.450  1.00  0.00     0.014 C 
HETATM   45  C   UNL     1      17.692 -21.094  16.631  1.00  0.00     0.023 C 
HETATM   46  C   UNL     1      17.132 -21.347  14.263  1.00  0.00     0.023 C 
BRANCH  44  47
HETATM   47  C   UNL     1      15.472 -20.200  15.746  1.00  0.00     0.136 C 
HETATM   48  O   UNL     1      15.057 -19.141  16.227  1.00  0.00    -0.297 OA
BRANCH  47  49
HETATM   49  C   UNL     1      14.503 -21.361  15.541  1.00  0.00     0.109 C 
BRANCH  49  50
HETATM   50  C   UNL     1      14.045 -21.932  16.892  1.00  0.00     0.279 C 
BRANCH  50  51
HETATM   51  N   UNL     1      13.047 -23.013  16.747  1.00  0.00     0.080 N 
HETATM   52  C   UNL     1      13.573 -24.147  15.986  1.00  0.00     0.309 C 
HETATM   53  C   UNL     1      12.611 -23.480  18.068  1.00  0.00     0.309 C 
ENDBRANCH  50  51
ENDBRANCH  49  50
ENDBRANCH  47  49
ENDBRANCH  44  47
ENDBRANCH  43  44
ENDBRANCH  41  43
BRANCH  41  54
HETATM   54  C   UNL     1      16.619 -17.816  13.239  1.00  0.00     0.137 C 
HETATM   55  O   UNL     1      15.851 -17.026  13.777  1.00  0.00    -0.297 OA
BRANCH  54  56
HETATM   56  C   UNL     1      16.175 -18.555  11.993  1.00  0.00     0.109 C 
BRANCH  56  57
HETATM   57  C   UNL     1      15.032 -17.853  11.259  1.00  0.00     0.279 C 
BRANCH  57  58
HETATM   58  N   UNL     1      14.405 -18.805  10.318  1.00  0.00     0.080 N 
HETATM   59  C   UNL     1      15.419 -19.485   9.507  1.00  0.00     0.309 C 
HETATM   60  C   UNL     1      13.588 -19.790  11.019  1.00  0.00     0.309 C 
ENDBRANCH  57  58
ENDBRANCH  56  57
ENDBRANCH  54  56
ENDBRANCH  41  54
ENDBRANCH  40  41
ENDBRANCH  38  40
BRANCH  38  61
HETATM   61  C   UNL     1      20.578 -16.367  15.807  1.00  0.00     0.137 C 
HETATM   62  O   UNL     1      21.274 -15.546  16.416  1.00  0.00    -0.297 OA
BRANCH  61  63
HETATM   63  C   UNL     1      21.033 -17.805  15.773  1.00  0.00     0.109 C 
BRANCH  63  64
HETATM   64  C   UNL     1      21.925 -18.205  16.958  1.00  0.00     0.279 C 
BRANCH  64  65
HETATM   65  N   UNL     1      21.763 -19.633  17.307  1.00  0.00     0.080 N 
HETATM   66  C   UNL     1      20.781 -19.815  18.378  1.00  0.00     0.309 C 
HETATM   67  C   UNL     1      21.340 -20.394  16.127  1.00  0.00     0.309 C 
ENDBRANCH  64  65
ENDBRANCH  63  64
ENDBRANCH  61  63
ENDBRANCH  38  61
ENDBRANCH  37  38
ENDBRANCH  35  37
BRANCH  35  68
HETATM   68  C   UNL     1      18.191 -16.480  18.514  1.00  0.00     0.137 C 
HETATM   69  O   UNL     1      19.288 -16.390  19.079  1.00  0.00    -0.297 OA
BRANCH  68  70
HETATM   70  C   UNL     1      17.341 -17.740  18.728  1.00  0.00     0.109 C 
BRANCH  70  71
HETATM   71  C   UNL     1      17.701 -18.490  20.034  1.00  0.00     0.279 C 
BRANCH  71  72
HETATM   72  N   UNL     1      17.267 -17.939  21.335  1.00  0.00     0.080 N 
HETATM   73  C   UNL     1      15.848 -17.626  21.380  1.00  0.00     0.309 C 
HETATM   74  C   UNL     1      17.557 -18.916  22.395  1.00  0.00     0.309 C 
ENDBRANCH  71  72
ENDBRANCH  70  71
ENDBRANCH  68  70
ENDBRANCH  35  68
ENDBRANCH  34  35
ENDBRANCH  32  34
BRANCH  32  75
HETATM   75  C   UNL     1      14.402 -13.097  18.458  1.00  0.00     0.138 C 
HETATM   76  O   UNL     1      13.980 -11.990  18.820  1.00  0.00    -0.297 OA
BRANCH  75  77
HETATM   77  C   UNL     1      13.444 -14.033  17.754  1.00  0.00     0.109 C 
BRANCH  77  78
HETATM   78  C   UNL     1      12.512 -13.220  16.874  1.00  0.00     0.279 C 
BRANCH  78  79
HETATM   79  N   UNL     1      12.782 -13.323  15.432  1.00  0.00     0.080 N 
HETATM   80  C   UNL     1      13.533 -14.539  15.116  1.00  0.00     0.309 C 
HETATM   81  C   UNL     1      13.537 -12.148  14.983  1.00  0.00     0.309 C 
ENDBRANCH  78  79
ENDBRANCH  77  78
ENDBRANCH  75  77
ENDBRANCH  32  75
ENDBRANCH  31  32
ENDBRANCH  29  31
ENDBRANCH  23  29
ENDBRANCH  17  18
ENDBRANCH  11  17
BRANCH  12  82
HETATM   82  O   UNL     1      16.456  -7.813  23.869  1.00  0.00    -0.391 OA
HETATM   83  H   UNL     1      16.257  -7.290  24.672  1.00  0.00     0.210 HD
ENDBRANCH  12  82
BRANCH  13  84
HETATM   84  N   UNL     1      17.819  -7.489  26.386  1.00  0.00     0.090 N 
HETATM   85  H   UNL     1      18.301  -6.624  26.658  1.00  0.00     0.313 HD
HETATM   86  H   UNL     1      18.024  -8.132  27.162  1.00  0.00     0.313 HD
ENDBRANCH  13  84
ENDBRANCH   7   8
ENDBRANCH   1   7
BRANCH   2  87
HETATM   87  C   UNL     1      21.640  -4.318  22.807  1.00  0.00     0.198 C 
BRANCH  87  88
HETATM   88  O   UNL     1      21.616  -3.931  21.440  1.00  0.00    -0.398 OA
HETATM   89  H   UNL     1      20.750  -4.177  21.069  1.00  0.00     0.209 HD
ENDBRANCH  87  88
ENDBRANCH   2  87
BRANCH   3  90
HETATM   90  O   UNL     1      18.723  -3.188  26.076  1.00  0.00    -0.391 OA
HETATM   91  H   UNL     1      18.177  -3.989  26.221  1.00  0.00     0.210 HD
ENDBRANCH   3  90
BRANCH   4  92
HETATM   92  N   UNL     1      20.879  -1.393  26.799  1.00  0.00     0.090 N 
HETATM   93  H   UNL     1      21.228  -1.777  27.681  1.00  0.00     0.313 HD
HETATM   94  H   UNL     1      19.870  -1.301  26.976  1.00  0.00     0.313 HD
ENDBRANCH   4  92
BRANCH   5  95
HETATM   95  O   UNL     1      20.171  -0.535  24.341  1.00  0.00    -0.348 OA
BRANCH  95  96
HETATM   96  C   UNL     1      20.883   0.555  23.687  1.00  0.00     0.186 C 
HETATM   97  C   UNL     1      20.583   0.565  22.177  1.00  0.00     0.180 C 
HETATM   98  O   UNL     1      20.055   1.809  21.720  1.00  0.00    -0.349 OA
HETATM   99  C   UNL     1      20.713   3.001  22.146  1.00  0.00     0.286 C 
HETATM  100  C   UNL     1      20.854   3.194  23.721  1.00  0.00     0.167 C 
HETATM  101  C   UNL     1      20.358   1.862  24.358  1.00  0.00     0.177 C 
BRANCH  97 102
HETATM  102  C   UNL     1      21.790   0.186  21.305  1.00  0.00     0.198 C 
BRANCH 102 103
HETATM  103  O   UNL     1      21.407   0.114  19.933  1.00  0.00    -0.398 OA
HETATM  104  H   UNL     1      22.151   0.457  19.399  1.00  0.00     0.209 HD
ENDBRANCH 102 103
ENDBRANCH  97 102
BRANCH  99 105
HETATM  105  O   UNL     1      19.903   4.038  21.595  1.00  0.00    -0.348 OA
BRANCH 105 106
HETATM  106  C   UNL     1      20.516   4.826  20.587  1.00  0.00     0.186 C 
HETATM  107  C   UNL     1      22.041   4.880  20.811  1.00  0.00     0.176 C 
HETATM  108  O   UNL     1      22.780   4.959  19.569  1.00  0.00    -0.379 OA
HETATM  109  C   UNL     1      22.121   5.733  18.561  1.00  0.00     0.206 C 
HETATM  110  C   UNL     1      20.802   5.072  18.104  1.00  0.00     0.272 C 
HETATM  111  C   UNL     1      20.226   4.175  19.222  1.00  0.00     0.184 C 
BRANCH 107 112
HETATM  112  C   UNL     1      22.475   6.035  21.722  1.00  0.00     0.198 C 
BRANCH 112 113
HETATM  113  O   UNL     1      21.343   6.560  22.414  1.00  0.00    -0.398 OA
HETATM  114  H   UNL     1      21.697   7.133  23.123  1.00  0.00     0.209 HD
ENDBRANCH 112 113
ENDBRANCH 107 112
BRANCH 110 115
HETATM  115  N   UNL     1      20.976   4.310  16.853  1.00  0.00     0.087 N 
HETATM  116  H   UNL     1      21.585   3.512  17.050  1.00  0.00     0.313 HD
HETATM  117  H   UNL     1      21.553   4.880  16.227  1.00  0.00     0.313 HD
ENDBRANCH 110 115
BRANCH 111 118
HETATM  118  O   UNL     1      20.780   2.848  19.127  1.00  0.00    -0.391 OA
HETATM  119  H   UNL     1      21.748   2.936  19.061  1.00  0.00     0.210 HD
ENDBRANCH 111 118
ENDBRANCH 105 106
ENDBRANCH  99 105
BRANCH 100 120
HETATM  120  N   UNL     1      20.117   4.431  24.158  1.00  0.00    -0.389 N 
HETATM  121  H   UNL     1      19.258   4.455  23.600  1.00  0.00     0.159 HD
BRANCH 120 122
HETATM  122  C   UNL     1      20.057   4.993  25.514  1.00  0.00     0.073 C 
BRANCH 122 123
HETATM  123  C   UNL     1      18.686   5.032  26.348  1.00  0.00     0.049 C 
HETATM  124  C   UNL     1      18.831   6.212  27.322  1.00  0.00     0.029 C 
BRANCH 123 125
HETATM  125  C   UNL     1      18.134   3.703  27.140  1.00  0.00     0.039 C 
BRANCH 125 126
HETATM  126  C   UNL     1      17.025   3.769  28.378  1.00  0.00     0.019 C 
HETATM  127  C   UNL     1      17.964   3.801  29.615  1.00  0.00     0.023 C 
BRANCH 126 128
HETATM  128  C   UNL     1      16.052   4.988  28.433  1.00  0.00     0.137 C 
HETATM  129  O   UNL     1      16.230   5.836  29.316  1.00  0.00    -0.297 OA
BRANCH 128 130
HETATM  130  C   UNL     1      14.876   5.147  27.450  1.00  0.00     0.109 C 
BRANCH 130 131
HETATM  131  C   UNL     1      14.508   6.624  27.179  1.00  0.00     0.279 C 
BRANCH 131 132
HETATM  132  N   UNL     1      13.350   6.943  26.320  1.00  0.00     0.080 N 
HETATM  133  C   UNL     1      13.648   8.152  25.541  1.00  0.00     0.309 C 
HETATM  134  C   UNL     1      12.125   7.170  27.067  1.00  0.00     0.309 C 
ENDBRANCH 131 132
ENDBRANCH 130 131
ENDBRANCH 128 130
ENDBRANCH 126 128
BRANCH 126 135
HETATM  135  C   UNL     1      16.042   2.456  28.459  1.00  0.00     0.033 C 
BRANCH 135 136
HETATM  136  C   UNL     1      16.208   1.008  27.638  1.00  0.00     0.019 C 
HETATM  137  C   UNL     1      15.842   1.232  26.161  1.00  0.00     0.023 C 
BRANCH 136 138
HETATM  138  C   UNL     1      17.597   0.306  27.647  1.00  0.00     0.137 C 
HETATM  139  O   UNL     1      17.979  -0.306  26.643  1.00  0.00    -0.297 OA
BRANCH 138 140
HETATM  140  C   UNL     1      18.514   0.357  28.845  1.00  0.00     0.109 C 
BRANCH 140 141
HETATM  141  C   UNL     1      18.077  -0.526  30.026  1.00  0.00     0.279 C 
BRANCH 141 142
HETATM  142  N   UNL     1      17.900  -1.939  29.624  1.00  0.00     0.080 N 
HETATM  143  C   UNL     1      16.897  -2.587  30.475  1.00  0.00     0.309 C 
HETATM  144  C   UNL     1      19.158  -2.684  29.708  1.00  0.00     0.309 C 
ENDBRANCH 141 142
ENDBRANCH 140 141
ENDBRANCH 138 140
ENDBRANCH 136 138
BRANCH 136 145
HETATM  145  C   UNL     1      15.155  -0.023  28.282  1.00  0.00     0.033 C 
BRANCH 145 146
HETATM  146  C   UNL     1      13.825   0.250  29.211  1.00  0.00     0.019 C 
HETATM  147  C   UNL     1      14.396   0.691  30.587  1.00  0.00     0.023 C 
BRANCH 146 148
HETATM  148  C   UNL     1      12.772   1.313  28.729  1.00  0.00     0.033 C 
BRANCH 148 149
HETATM  149  C   UNL     1      11.949   2.313  29.637  1.00  0.00     0.014 C 
HETATM  150  C   UNL     1      12.962   3.377  30.147  1.00  0.00     0.023 C 
HETATM  151  C   UNL     1      11.376   1.687  30.926  1.00  0.00     0.023 C 
BRANCH 149 152
HETATM  152  C   UNL     1      10.783   2.997  28.877  1.00  0.00     0.136 C 
HETATM  153  O   UNL     1      10.978   4.056  28.274  1.00  0.00    -0.297 OA
BRANCH 152 154
HETATM  154  C   UNL     1       9.369   2.424  28.948  1.00  0.00     0.109 C 
BRANCH 154 155
HETATM  155  C   UNL     1       8.847   2.074  27.543  1.00  0.00     0.279 C 
BRANCH 155 156
HETATM  156  N   UNL     1       7.370   2.080  27.462  1.00  0.00     0.080 N 
HETATM  157  C   UNL     1       6.856   0.943  26.698  1.00  0.00     0.309 C 
HETATM  158  C   UNL     1       6.789   2.057  28.810  1.00  0.00     0.309 C 
ENDBRANCH 155 156
ENDBRANCH 154 155
ENDBRANCH 152 154
ENDBRANCH 149 152
ENDBRANCH 148 149
ENDBRANCH 146 148
BRANCH 146 159
HETATM  159  C   UNL     1      13.146  -1.136  29.457  1.00  0.00     0.137 C 
HETATM  160  O   UNL     1      12.406  -1.330  30.427  1.00  0.00    -0.297 OA
BRANCH 159 161
HETATM  161  C   UNL     1      13.561  -2.308  28.596  1.00  0.00     0.109 C 
BRANCH 161 162
HETATM  162  C   UNL     1      13.454  -3.656  29.312  1.00  0.00     0.279 C 
BRANCH 162 163
HETATM  163  N   UNL     1      14.325  -4.637  28.629  1.00  0.00     0.080 N 
HETATM  164  C   UNL     1      13.689  -5.182  27.433  1.00  0.00     0.309 C 
HETATM  165  C   UNL     1      14.699  -5.726  29.533  1.00  0.00     0.309 C 
ENDBRANCH 162 163
ENDBRANCH 161 162
ENDBRANCH 159 161
ENDBRANCH 146 159
ENDBRANCH 145 146
ENDBRANCH 136 145
ENDBRANCH 135 136
ENDBRANCH 126 135
ENDBRANCH 125 126
ENDBRANCH 123 125
BRANCH 123 166
HETATM  166  C   UNL     1      17.687   5.225  25.171  1.00  0.00     0.141 C 
HETATM  167  O   UNL     1      17.283   4.265  24.501  1.00  0.00    -0.297 OA
BRANCH 166 168
HETATM  168  C   UNL     1      17.282   6.614  24.741  1.00  0.00     0.110 C 
BRANCH 168 169
HETATM  169  C   UNL     1      17.647   6.814  23.288  1.00  0.00     0.279 C 
BRANCH 169 170
HETATM  170  N   UNL     1      17.583   8.202  22.807  1.00  0.00     0.080 N 
HETATM  171  C   UNL     1      16.197   8.624  22.599  1.00  0.00     0.309 C 
HETATM  172  C   UNL     1      18.307   8.311  21.536  1.00  0.00     0.309 C 
ENDBRANCH 169 170
ENDBRANCH 168 169
ENDBRANCH 166 168
ENDBRANCH 123 166
ENDBRANCH 122 123
ENDBRANCH 120 122
ENDBRANCH 100 120
BRANCH 101 173
HETATM  173  O   UNL     1      18.914   1.839  24.336  1.00  0.00    -0.391 OA
HETATM  174  H   UNL     1      18.622   2.036  25.248  1.00  0.00     0.210 HD
ENDBRANCH 101 173
ENDBRANCH  95  96
ENDBRANCH   5  95
TORSDOF 88
ENDMDL
MODEL 7
REMARK VINA RESULT:      -4.4     12.489     26.264
REMARK WARNING: 32 MAX_TORS EXCEEDED!!!
REMARK  88 active torsions:
REMARK  status: ('A' for Active; 'I' for Inactive)
REMARK    1  A    between atoms: C_1  and  O_28 
REMARK    2  A    between atoms: C_2  and  C_6 
REMARK    3  A    between atoms: C_3  and  O_8 
REMARK    4  A    between atoms: C_4  and  N_10 
REMARK    5  A    between atoms: C_5  and  O_11 
REMARK    6  A    between atoms: C_6  and  O_65 
REMARK    7  A    between atoms: O_11  and  C_18 
REMARK    8  A    between atoms: O_13  and  C_16 
REMARK    9  A    between atoms: C_15  and  C_21 
REMARK   10  A    between atoms: O_17  and  C_20 
REMARK   11  A    between atoms: O_17  and  C_39 
REMARK   12  A    between atoms: N_19  and  C_22 
REMARK   13  A    between atoms: N_19  and  C_161 
REMARK   14  A    between atoms: C_21  and  O_67 
REMARK   15  A    between atoms: O_24  and  C_27 
REMARK   16  A    between atoms: C_26  and  C_32 
REMARK   17  A    between atoms: O_28  and  C_31 
REMARK   18  A    between atoms: C_29  and  O_49 
REMARK   19  A    between atoms: N_30  and  C_33 
REMARK   20  A    between atoms: C_32  and  O_63 
REMARK   21  A    between atoms: O_35  and  C_38 
REMARK   22  A    between atoms: C_37  and  C_42 
REMARK   23  A    between atoms: N_40  and  C_43 
REMARK   24  A    between atoms: C_42  and  O_69 
REMARK   25  A    between atoms: O_45  and  C_48 
REMARK   26  A    between atoms: C_47  and  C_53 
REMARK   27  A    between atoms: O_49  and  C_52 
REMARK   28  A    between atoms: N_51  and  C_54 
REMARK   29  A    between atoms: N_51  and  C_71 
REMARK   30  A    between atoms: C_53  and  O_61 
REMARK   31  A    between atoms: C_71  and  C_73 
REMARK   32  A    between atoms: C_73  and  C_74 
REMARK   33  A    between atoms: C_73  and  C_83 
REMARK   34  A    between atoms: C_74  and  C_75 
REMARK   35  A    between atoms: C_75  and  C_76 
REMARK   36  A    between atoms: C_75  and  C_87 
REMARK   37  A    between atoms: C_76  and  C_77 
REMARK   38  A    between atoms: C_77  and  C_78 
REMARK   39  A    between atoms: C_77  and  C_91 
REMARK   40  A    between atoms: C_78  and  C_79 
REMARK   41  A    between atoms: C_79  and  C_80 
REMARK   42  A    between atoms: C_79  and  C_95 
REMARK   43  A    between atoms: C_80  and  C_81 
REMARK   44  A    between atoms: C_81  and  C_99 
REMARK   45  A    between atoms: C_83  and  C_84 
REMARK   46  A    between atoms: C_84  and  C_85 
REMARK   47  A    between atoms: C_85  and  N_103 
REMARK   48  A    between atoms: C_87  and  C_88 
REMARK   49  A    between atoms: C_88  and  C_89 
REMARK   50  A    between atoms: C_89  and  N_104 
REMARK   51  A    between atoms: C_91  and  C_92 
REMARK   52  A    between atoms: C_92  and  C_93 
REMARK   53  A    between atoms: C_93  and  N_105 
REMARK   54  A    between atoms: C_95  and  C_96 
REMARK   55  A    between atoms: C_96  and  C_97 
REMARK   56  A    between atoms: C_97  and  N_106 
REMARK   57  A    between atoms: C_99  and  C_100 
REMARK   58  A    between atoms: C_100  and  C_101 
REMARK   59  A    between atoms: C_101  and  N_107 
REMARK   60  A    between atoms: N_126  and  C_129 
REMARK   61  A    between atoms: C_129  and  C_135 
REMARK   62  A    between atoms: C_130  and  C_135 
REMARK   63  A    between atoms: C_130  and  C_142 
REMARK   64  A    between atoms: N_132  and  C_139 
REMARK   65  A    between atoms: C_136  and  C_137 
REMARK   66  A    between atoms: C_136  and  C_146 
REMARK   67  A    between atoms: C_137  and  C_139 
REMARK   68  A    between atoms: N_141  and  C_152 
REMARK   69  A    between atoms: C_142  and  C_153 
REMARK   70  A    between atoms: C_142  and  C_159 
REMARK   71  A    between atoms: C_144  and  C_152 
REMARK   72  A    between atoms: C_144  and  C_156 
REMARK   73  A    between atoms: C_146  and  C_162 
REMARK   74  A    between atoms: C_146  and  C_153 
REMARK   75  A    between atoms: C_148  and  C_156 
REMARK   76  A    between atoms: C_148  and  C_149 
REMARK   77  A    between atoms: C_149  and  C_163 
REMARK   78  A    between atoms: C_150  and  C_161 
REMARK   79  A    between atoms: C_150  and  C_159 
REMARK   80  A    between atoms: C_150  and  C_160 
REMARK   81  A    between atoms: C_151  and  N_157 
REMARK   82  A    between atoms: C_151  and  C_154 
REMARK   83  A    between atoms: C_154  and  C_160 
REMARK   84  A    between atoms: C_162  and  C_163 
REMARK   85  A    between atoms: C_163  and  C_169 
REMARK   86  A    between atoms: C_166  and  C_171 
REMARK   87  A    between atoms: C_166  and  C_169 
REMARK   88  A    between atoms: N_167  and  C_171 
ROOT
HETATM    1  C   UNL     1      17.385  -5.429  27.791  1.00  0.00     0.186 C 
HETATM    2  C   UNL     1      18.207  -4.192  27.366  1.00  0.00     0.179 C 
HETATM    3  C   UNL     1      16.302  -5.042  28.819  1.00  0.00     0.187 C 
HETATM    4  C   UNL     1      16.863  -4.102  29.913  1.00  0.00     0.303 C 
HETATM    5  C   UNL     1      17.542  -2.841  29.271  1.00  0.00     0.296 C 
HETATM    6  O   UNL     1      17.623  -2.967  27.847  1.00  0.00    -0.349 OA
ENDROOT
BRANCH   1   7
HETATM    7  O   UNL     1      16.754  -5.973  26.623  1.00  0.00    -0.348 OA
BRANCH   7   8
HETATM    8  C   UNL     1      17.478  -7.032  25.978  1.00  0.00     0.296 C 
HETATM    9  O   UNL     1      17.569  -6.680  24.600  1.00  0.00    -0.349 OA
HETATM   10  C   UNL     1      18.012  -7.703  23.694  1.00  0.00     0.179 C 
HETATM   11  C   UNL     1      17.433  -9.107  23.963  1.00  0.00     0.186 C 
HETATM   12  C   UNL     1      16.287  -9.067  24.967  1.00  0.00     0.187 C 
HETATM   13  C   UNL     1      16.772  -8.403  26.260  1.00  0.00     0.303 C 
BRANCH  10  14
HETATM   14  C   UNL     1      19.549  -7.707  23.679  1.00  0.00     0.198 C 
BRANCH  14  15
HETATM   15  O   UNL     1      20.042  -8.945  23.167  1.00  0.00    -0.398 OA
HETATM   16  H   UNL     1      20.486  -8.741  22.322  1.00  0.00     0.209 HD
ENDBRANCH  14  15
ENDBRANCH  10  14
BRANCH  11  17
HETATM   17  O   UNL     1      16.893  -9.646  22.745  1.00  0.00    -0.348 OA
BRANCH  17  18
HETATM   18  C   UNL     1      16.832  -8.697  21.686  1.00  0.00     0.296 C 
HETATM   19  O   UNL     1      15.524  -8.111  21.668  1.00  0.00    -0.351 OA
HETATM   20  C   UNL     1      15.493  -6.864  20.946  1.00  0.00     0.150 C 
HETATM   21  C   UNL     1      16.459  -6.899  19.747  1.00  0.00     0.068 C 
HETATM   22  C   UNL     1      16.567  -8.337  19.215  1.00  0.00     0.158 C 
HETATM   23  C   UNL     1      17.168  -9.323  20.273  1.00  0.00     0.303 C 
BRANCH  20  24
HETATM   24  C   UNL     1      15.681  -5.676  21.902  1.00  0.00     0.196 C 
BRANCH  24  25
HETATM   25  O   UNL     1      14.993  -5.879  23.133  1.00  0.00    -0.398 OA
HETATM   26  H   UNL     1      15.423  -6.640  23.565  1.00  0.00     0.209 HD
ENDBRANCH  24  25
ENDBRANCH  20  24
BRANCH  22  27
HETATM   27  O   UNL     1      15.239  -8.752  18.853  1.00  0.00    -0.393 OA
HETATM   28  H   UNL     1      14.625  -8.368  19.510  1.00  0.00     0.210 HD
ENDBRANCH  22  27
BRANCH  23  29
HETATM   29  N   UNL     1      16.636 -10.712  20.092  1.00  0.00     0.096 N 
HETATM   30  H   UNL     1      15.751 -10.603  19.599  1.00  0.00     0.316 HD
BRANCH  29  31
HETATM   31  C   UNL     1      17.497 -11.707  19.399  1.00  0.00     0.287 C 
BRANCH  31  32
HETATM   32  C   UNL     1      16.702 -12.809  18.527  1.00  0.00     0.044 C 
HETATM   33  C   UNL     1      16.165 -13.899  19.468  1.00  0.00     0.025 C 
BRANCH  32  34
HETATM   34  C   UNL     1      17.615 -13.451  17.348  1.00  0.00     0.035 C 
BRANCH  34  35
HETATM   35  C   UNL     1      17.317 -14.862  16.589  1.00  0.00     0.019 C 
HETATM   36  C   UNL     1      16.013 -15.359  17.269  1.00  0.00     0.023 C 
BRANCH  35  37
HETATM   37  C   UNL     1      18.538 -15.888  16.883  1.00  0.00     0.033 C 
BRANCH  37  38
HETATM   38  C   UNL     1      19.049 -16.489  18.321  1.00  0.00     0.019 C 
HETATM   39  C   UNL     1      19.490 -15.334  19.234  1.00  0.00     0.023 C 
BRANCH  38  40
HETATM   40  C   UNL     1      20.319 -17.405  17.973  1.00  0.00     0.033 C 
BRANCH  40  41
HETATM   41  C   UNL     1      21.381 -17.320  16.743  1.00  0.00     0.019 C 
HETATM   42  C   UNL     1      22.565 -18.221  17.188  1.00  0.00     0.023 C 
BRANCH  41  43
HETATM   43  C   UNL     1      20.894 -17.766  15.324  1.00  0.00     0.033 C 
BRANCH  43  44
HETATM   44  C   UNL     1      20.115 -19.090  14.969  1.00  0.00     0.014 C 
HETATM   45  C   UNL     1      19.882 -19.062  13.433  1.00  0.00     0.023 C 
HETATM   46  C   UNL     1      18.698 -19.178  15.570  1.00  0.00     0.023 C 
BRANCH  44  47
HETATM   47  C   UNL     1      20.896 -20.363  15.380  1.00  0.00     0.136 C 
HETATM   48  O   UNL     1      21.986 -20.612  14.857  1.00  0.00    -0.297 OA
BRANCH  47  49
HETATM   49  C   UNL     1      20.285 -21.366  16.354  1.00  0.00     0.109 C 
BRANCH  49  50
HETATM   50  C   UNL     1      19.914 -22.670  15.630  1.00  0.00     0.279 C 
BRANCH  50  51
HETATM   51  N   UNL     1      18.465 -22.786  15.366  1.00  0.00     0.080 N 
HETATM   52  C   UNL     1      18.154 -22.657  13.942  1.00  0.00     0.309 C 
HETATM   53  C   UNL     1      17.963 -24.077  15.854  1.00  0.00     0.309 C 
ENDBRANCH  50  51
ENDBRANCH  49  50
ENDBRANCH  47  49
ENDBRANCH  44  47
ENDBRANCH  43  44
ENDBRANCH  41  43
BRANCH  41  54
HETATM   54  C   UNL     1      21.943 -15.860  16.727  1.00  0.00     0.137 C 
HETATM   55  O   UNL     1      21.465 -14.994  16.002  1.00  0.00    -0.297 OA
BRANCH  54  56
HETATM   56  C   UNL     1      23.228 -15.577  17.477  1.00  0.00     0.109 C 
BRANCH  56  57
HETATM   57  C   UNL     1      24.328 -15.005  16.580  1.00  0.00     0.279 C 
BRANCH  57  58
HETATM   58  N   UNL     1      24.958 -13.856  17.264  1.00  0.00     0.080 N 
HETATM   59  C   UNL     1      24.029 -13.236  18.211  1.00  0.00     0.309 C 
HETATM   60  C   UNL     1      26.182 -14.250  17.954  1.00  0.00     0.309 C 
ENDBRANCH  57  58
ENDBRANCH  56  57
ENDBRANCH  54  56
ENDBRANCH  41  54
ENDBRANCH  40  41
ENDBRANCH  38  40
BRANCH  38  61
HETATM   61  C   UNL     1      18.044 -17.340  19.144  1.00  0.00     0.137 C 
HETATM   62  O   UNL     1      17.466 -18.293  18.608  1.00  0.00    -0.297 OA
BRANCH  61  63
HETATM   63  C   UNL     1      17.764 -17.061  20.600  1.00  0.00     0.109 C 
BRANCH  63  64
HETATM   64  C   UNL     1      16.291 -17.237  20.997  1.00  0.00     0.279 C 
BRANCH  64  65
HETATM   65  N   UNL     1      16.068 -18.507  21.722  1.00  0.00     0.080 N 
HETATM   66  C   UNL     1      17.226 -18.867  22.543  1.00  0.00     0.309 C 
HETATM   67  C   UNL     1      14.883 -18.394  22.578  1.00  0.00     0.309 C 
ENDBRANCH  64  65
ENDBRANCH  63  64
ENDBRANCH  61  63
ENDBRANCH  38  61
ENDBRANCH  37  38
ENDBRANCH  35  37
BRANCH  35  68
HETATM   68  C   UNL     1      17.104 -14.856  15.045  1.00  0.00     0.137 C 
HETATM   69  O   UNL     1      18.071 -14.593  14.320  1.00  0.00    -0.297 OA
BRANCH  68  70
HETATM   70  C   UNL     1      15.738 -15.130  14.399  1.00  0.00     0.109 C 
BRANCH  70  71
HETATM   71  C   UNL     1      15.669 -16.515  13.711  1.00  0.00     0.279 C 
BRANCH  71  72
HETATM   72  N   UNL     1      14.533 -17.416  13.996  1.00  0.00     0.080 N 
HETATM   73  C   UNL     1      14.178 -18.265  12.871  1.00  0.00     0.309 C 
HETATM   74  C   UNL     1      14.876 -18.281  15.135  1.00  0.00     0.309 C 
ENDBRANCH  71  72
ENDBRANCH  70  71
ENDBRANCH  68  70
ENDBRANCH  35  68
ENDBRANCH  34  35
ENDBRANCH  32  34
BRANCH  32  75
HETATM   75  C   UNL     1      15.608 -11.974  17.816  1.00  0.00     0.138 C 
HETATM   76  O   UNL     1      15.916 -10.998  17.120  1.00  0.00    -0.297 OA
BRANCH  75  77
HETATM   77  C   UNL     1      14.140 -12.240  18.066  1.00  0.00     0.109 C 
BRANCH  77  78
HETATM   78  C   UNL     1      13.318 -11.536  17.002  1.00  0.00     0.279 C 
BRANCH  78  79
HETATM   79  N   UNL     1      12.829 -12.409  15.925  1.00  0.00     0.080 N 
HETATM   80  C   UNL     1      12.882 -13.818  16.317  1.00  0.00     0.309 C 
HETATM   81  C   UNL     1      13.632 -12.204  14.714  1.00  0.00     0.309 C 
ENDBRANCH  78  79
ENDBRANCH  77  78
ENDBRANCH  75  77
ENDBRANCH  32  75
ENDBRANCH  31  32
ENDBRANCH  29  31
ENDBRANCH  23  29
ENDBRANCH  17  18
ENDBRANCH  11  17
BRANCH  12  82
HETATM   82  O   UNL     1      15.153  -8.385  24.416  1.00  0.00    -0.391 OA
HETATM   83  H   UNL     1      14.860  -8.947  23.669  1.00  0.00     0.210 HD
ENDBRANCH  12  82
BRANCH  13  84
HETATM   84  N   UNL     1      15.676  -8.372  27.250  1.00  0.00     0.090 N 
HETATM   85  H   UNL     1      15.973  -7.706  27.972  1.00  0.00     0.313 HD
HETATM   86  H   UNL     1      15.662  -9.273  27.745  1.00  0.00     0.313 HD
ENDBRANCH  13  84
ENDBRANCH   7   8
ENDBRANCH   1   7
BRANCH   2  87
HETATM   87  C   UNL     1      19.683  -4.345  27.775  1.00  0.00     0.198 C 
BRANCH  87  88
HETATM   88  O   UNL     1      20.448  -3.201  27.420  1.00  0.00    -0.398 OA
HETATM   89  H   UNL     1      19.916  -2.656  26.813  1.00  0.00     0.209 HD
ENDBRANCH  87  88
ENDBRANCH   2  87
BRANCH   3  90
HETATM   90  O   UNL     1      15.177  -4.427  28.170  1.00  0.00    -0.391 OA
HETATM   91  H   UNL     1      14.576  -4.115  28.880  1.00  0.00     0.210 HD
ENDBRANCH   3  90
BRANCH   4  92
HETATM   92  N   UNL     1      15.826  -3.758  30.914  1.00  0.00     0.090 N 
HETATM   93  H   UNL     1      16.080  -2.880  31.374  1.00  0.00     0.313 HD
HETATM   94  H   UNL     1      15.920  -4.447  31.672  1.00  0.00     0.313 HD
ENDBRANCH   4  92
BRANCH   5  95
HETATM   95  O   UNL     1      16.776  -1.646  29.530  1.00  0.00    -0.348 OA
BRANCH  95  96
HETATM   96  C   UNL     1      15.835  -1.239  28.494  1.00  0.00     0.186 C 
HETATM   97  C   UNL     1      14.585  -0.598  29.123  1.00  0.00     0.180 C 
HETATM   98  O   UNL     1      14.327   0.719  28.639  1.00  0.00    -0.349 OA
HETATM   99  C   UNL     1      14.387   0.926  27.229  1.00  0.00     0.286 C 
HETATM  100  C   UNL     1      15.752   0.512  26.521  1.00  0.00     0.167 C 
HETATM  101  C   UNL     1      16.600  -0.200  27.617  1.00  0.00     0.177 C 
BRANCH  97 102
HETATM  102  C   UNL     1      13.312  -1.443  28.966  1.00  0.00     0.198 C 
BRANCH 102 103
HETATM  103  O   UNL     1      13.443  -2.675  29.674  1.00  0.00    -0.398 OA
HETATM  104  H   UNL     1      12.558  -3.090  29.713  1.00  0.00     0.209 HD
ENDBRANCH 102 103
ENDBRANCH  97 102
BRANCH  99 105
HETATM  105  O   UNL     1      14.171   2.330  27.094  1.00  0.00    -0.348 OA
BRANCH 105 106
HETATM  106  C   UNL     1      13.450   2.945  28.150  1.00  0.00     0.186 C 
HETATM  107  C   UNL     1      14.069   4.319  28.482  1.00  0.00     0.176 C 
HETATM  108  O   UNL     1      13.078   5.279  28.922  1.00  0.00    -0.379 OA
HETATM  109  C   UNL     1      12.026   4.698  29.699  1.00  0.00     0.206 C 
HETATM  110  C   UNL     1      11.171   3.720  28.863  1.00  0.00     0.272 C 
HETATM  111  C   UNL     1      11.994   3.141  27.691  1.00  0.00     0.184 C 
BRANCH 107 112
HETATM  112  C   UNL     1      15.183   4.239  29.533  1.00  0.00     0.198 C 
BRANCH 112 113
HETATM  113  O   UNL     1      16.090   3.189  29.201  1.00  0.00    -0.398 OA
HETATM  114  H   UNL     1      15.549   2.469  28.822  1.00  0.00     0.209 HD
ENDBRANCH 112 113
ENDBRANCH 107 112
BRANCH 110 115
HETATM  115  N   UNL     1       9.931   4.354  28.375  1.00  0.00     0.087 N 
HETATM  116  H   UNL     1       9.211   4.233  29.091  1.00  0.00     0.313 HD
HETATM  117  H   UNL     1       9.577   3.778  27.605  1.00  0.00     0.313 HD
ENDBRANCH 110 115
BRANCH 111 118
HETATM  118  O   UNL     1      11.900   4.009  26.544  1.00  0.00    -0.391 OA
HETATM  119  H   UNL     1      11.760   4.916  26.871  1.00  0.00     0.210 HD
ENDBRANCH 111 118
ENDBRANCH 105 106
ENDBRANCH  99 105
BRANCH 100 120
HETATM  120  N   UNL     1      16.396   1.718  25.891  1.00  0.00    -0.389 N 
HETATM  121  H   UNL     1      16.770   2.271  26.669  1.00  0.00     0.159 HD
BRANCH 120 122
HETATM  122  C   UNL     1      17.122   1.770  24.615  1.00  0.00     0.073 C 
BRANCH 122 123
HETATM  123  C   UNL     1      18.724   1.683  24.555  1.00  0.00     0.049 C 
HETATM  124  C   UNL     1      19.227   2.689  25.604  1.00  0.00     0.029 C 
BRANCH 123 125
HETATM  125  C   UNL     1      19.534   1.879  23.141  1.00  0.00     0.039 C 
BRANCH 125 126
HETATM  126  C   UNL     1      19.520   3.293  22.264  1.00  0.00     0.019 C 
HETATM  127  C   UNL     1      18.621   2.887  21.064  1.00  0.00     0.023 C 
BRANCH 126 128
HETATM  128  C   UNL     1      18.938   4.573  22.939  1.00  0.00     0.137 C 
HETATM  129  O   UNL     1      17.709   4.713  22.964  1.00  0.00    -0.297 OA
BRANCH 128 130
HETATM  130  C   UNL     1      19.840   5.668  23.542  1.00  0.00     0.109 C 
BRANCH 130 131
HETATM  131  C   UNL     1      19.265   7.092  23.370  1.00  0.00     0.279 C 
BRANCH 131 132
HETATM  132  N   UNL     1      20.173   8.256  23.390  1.00  0.00     0.080 N 
HETATM  133  C   UNL     1      19.628   9.307  22.521  1.00  0.00     0.309 C 
HETATM  134  C   UNL     1      21.519   7.943  22.941  1.00  0.00     0.309 C 
ENDBRANCH 131 132
ENDBRANCH 130 131
ENDBRANCH 128 130
ENDBRANCH 126 128
BRANCH 126 135
HETATM  135  C   UNL     1      21.001   3.752  21.721  1.00  0.00     0.033 C 
BRANCH 135 136
HETATM  136  C   UNL     1      22.001   2.922  20.669  1.00  0.00     0.019 C 
HETATM  137  C   UNL     1      23.463   3.273  20.996  1.00  0.00     0.023 C 
BRANCH 136 138
HETATM  138  C   UNL     1      21.917   1.369  20.637  1.00  0.00     0.137 C 
HETATM  139  O   UNL     1      21.105   0.815  19.886  1.00  0.00    -0.297 OA
BRANCH 138 140
HETATM  140  C   UNL     1      22.809   0.498  21.488  1.00  0.00     0.109 C 
BRANCH 140 141
HETATM  141  C   UNL     1      22.162  -0.814  21.963  1.00  0.00     0.279 C 
BRANCH 141 142
HETATM  142  N   UNL     1      22.915  -2.000  21.503  1.00  0.00     0.080 N 
HETATM  143  C   UNL     1      24.235  -1.601  21.003  1.00  0.00     0.309 C 
HETATM  144  C   UNL     1      22.196  -2.718  20.447  1.00  0.00     0.309 C 
ENDBRANCH 141 142
ENDBRANCH 140 141
ENDBRANCH 138 140
ENDBRANCH 136 138
BRANCH 136 145
HETATM  145  C   UNL     1      21.663   3.443  19.186  1.00  0.00     0.033 C 
BRANCH 145 146
HETATM  146  C   UNL     1      21.587   4.971  18.583  1.00  0.00     0.019 C 
HETATM  147  C   UNL     1      22.542   5.796  19.490  1.00  0.00     0.023 C 
BRANCH 146 148
HETATM  148  C   UNL     1      21.977   5.211  17.079  1.00  0.00     0.033 C 
BRANCH 148 149
HETATM  149  C   UNL     1      23.115   4.474  16.265  1.00  0.00     0.014 C 
HETATM  150  C   UNL     1      22.400   3.655  15.153  1.00  0.00     0.023 C 
HETATM  151  C   UNL     1      23.899   3.416  17.070  1.00  0.00     0.023 C 
BRANCH 149 152
HETATM  152  C   UNL     1      24.140   5.455  15.639  1.00  0.00     0.136 C 
HETATM  153  O   UNL     1      25.153   5.018  15.086  1.00  0.00    -0.297 OA
BRANCH 152 154
HETATM  154  C   UNL     1      23.959   6.965  15.784  1.00  0.00     0.109 C 
BRANCH 154 155
HETATM  155  C   UNL     1      23.394   7.577  14.492  1.00  0.00     0.279 C 
BRANCH 155 156
HETATM  156  N   UNL     1      24.322   8.542  13.861  1.00  0.00     0.080 N 
HETATM  157  C   UNL     1      25.139   9.247  14.849  1.00  0.00     0.309 C 
HETATM  158  C   UNL     1      25.203   7.850  12.912  1.00  0.00     0.309 C 
ENDBRANCH 155 156
ENDBRANCH 154 155
ENDBRANCH 152 154
ENDBRANCH 149 152
ENDBRANCH 148 149
ENDBRANCH 146 148
BRANCH 146 159
HETATM  159  C   UNL     1      20.151   5.510  18.879  1.00  0.00     0.137 C 
HETATM  160  O   UNL     1      19.157   5.052  18.305  1.00  0.00    -0.297 OA
BRANCH 159 161
HETATM  161  C   UNL     1      20.004   6.745  19.740  1.00  0.00     0.109 C 
BRANCH 161 162
HETATM  162  C   UNL     1      19.585   7.988  18.952  1.00  0.00     0.279 C 
BRANCH 162 163
HETATM  163  N   UNL     1      20.790   8.628  18.382  1.00  0.00     0.080 N 
HETATM  164  C   UNL     1      21.049   9.929  18.992  1.00  0.00     0.309 C 
HETATM  165  C   UNL     1      20.670   8.775  16.930  1.00  0.00     0.309 C 
ENDBRANCH 162 163
ENDBRANCH 161 162
ENDBRANCH 159 161
ENDBRANCH 146 159
ENDBRANCH 145 146
ENDBRANCH 136 145
ENDBRANCH 135 136
ENDBRANCH 126 135
ENDBRANCH 125 126
ENDBRANCH 123 125
BRANCH 123 166
HETATM  166  C   UNL     1      18.903   0.177  24.900  1.00  0.00     0.141 C 
HETATM  167  O   UNL     1      19.195  -0.195  26.044  1.00  0.00    -0.297 OA
BRANCH 166 168
HETATM  168  C   UNL     1      18.845  -0.863  23.807  1.00  0.00     0.110 C 
BRANCH 168 169
HETATM  169  C   UNL     1      19.520  -2.128  24.285  1.00  0.00     0.279 C 
BRANCH 169 170
HETATM  170  N   UNL     1      19.810  -3.122  23.240  1.00  0.00     0.080 N 
HETATM  171  C   UNL     1      18.586  -3.785  22.790  1.00  0.00     0.309 C 
HETATM  172  C   UNL     1      20.729  -4.133  23.772  1.00  0.00     0.309 C 
ENDBRANCH 169 170
ENDBRANCH 168 169
ENDBRANCH 166 168
ENDBRANCH 123 166
ENDBRANCH 122 123
ENDBRANCH 120 122
ENDBRANCH 100 120
BRANCH 101 173
HETATM  173  O   UNL     1      17.176   0.798  28.488  1.00  0.00    -0.391 OA
HETATM  174  H   UNL     1      17.149   0.422  29.391  1.00  0.00     0.210 HD
ENDBRANCH 101 173
ENDBRANCH  95  96
ENDBRANCH   5  95
TORSDOF 88
ENDMDL
MODEL 8
REMARK VINA RESULT:      -4.4     17.695     26.162
REMARK WARNING: 32 MAX_TORS EXCEEDED!!!
REMARK  88 active torsions:
REMARK  status: ('A' for Active; 'I' for Inactive)
REMARK    1  A    between atoms: C_1  and  O_28 
REMARK    2  A    between atoms: C_2  and  C_6 
REMARK    3  A    between atoms: C_3  and  O_8 
REMARK    4  A    between atoms: C_4  and  N_10 
REMARK    5  A    between atoms: C_5  and  O_11 
REMARK    6  A    between atoms: C_6  and  O_65 
REMARK    7  A    between atoms: O_11  and  C_18 
REMARK    8  A    between atoms: O_13  and  C_16 
REMARK    9  A    between atoms: C_15  and  C_21 
REMARK   10  A    between atoms: O_17  and  C_20 
REMARK   11  A    between atoms: O_17  and  C_39 
REMARK   12  A    between atoms: N_19  and  C_22 
REMARK   13  A    between atoms: N_19  and  C_161 
REMARK   14  A    between atoms: C_21  and  O_67 
REMARK   15  A    between atoms: O_24  and  C_27 
REMARK   16  A    between atoms: C_26  and  C_32 
REMARK   17  A    between atoms: O_28  and  C_31 
REMARK   18  A    between atoms: C_29  and  O_49 
REMARK   19  A    between atoms: N_30  and  C_33 
REMARK   20  A    between atoms: C_32  and  O_63 
REMARK   21  A    between atoms: O_35  and  C_38 
REMARK   22  A    between atoms: C_37  and  C_42 
REMARK   23  A    between atoms: N_40  and  C_43 
REMARK   24  A    between atoms: C_42  and  O_69 
REMARK   25  A    between atoms: O_45  and  C_48 
REMARK   26  A    between atoms: C_47  and  C_53 
REMARK   27  A    between atoms: O_49  and  C_52 
REMARK   28  A    between atoms: N_51  and  C_54 
REMARK   29  A    between atoms: N_51  and  C_71 
REMARK   30  A    between atoms: C_53  and  O_61 
REMARK   31  A    between atoms: C_71  and  C_73 
REMARK   32  A    between atoms: C_73  and  C_74 
REMARK   33  A    between atoms: C_73  and  C_83 
REMARK   34  A    between atoms: C_74  and  C_75 
REMARK   35  A    between atoms: C_75  and  C_76 
REMARK   36  A    between atoms: C_75  and  C_87 
REMARK   37  A    between atoms: C_76  and  C_77 
REMARK   38  A    between atoms: C_77  and  C_78 
REMARK   39  A    between atoms: C_77  and  C_91 
REMARK   40  A    between atoms: C_78  and  C_79 
REMARK   41  A    between atoms: C_79  and  C_80 
REMARK   42  A    between atoms: C_79  and  C_95 
REMARK   43  A    between atoms: C_80  and  C_81 
REMARK   44  A    between atoms: C_81  and  C_99 
REMARK   45  A    between atoms: C_83  and  C_84 
REMARK   46  A    between atoms: C_84  and  C_85 
REMARK   47  A    between atoms: C_85  and  N_103 
REMARK   48  A    between atoms: C_87  and  C_88 
REMARK   49  A    between atoms: C_88  and  C_89 
REMARK   50  A    between atoms: C_89  and  N_104 
REMARK   51  A    between atoms: C_91  and  C_92 
REMARK   52  A    between atoms: C_92  and  C_93 
REMARK   53  A    between atoms: C_93  and  N_105 
REMARK   54  A    between atoms: C_95  and  C_96 
REMARK   55  A    between atoms: C_96  and  C_97 
REMARK   56  A    between atoms: C_97  and  N_106 
REMARK   57  A    between atoms: C_99  and  C_100 
REMARK   58  A    between atoms: C_100  and  C_101 
REMARK   59  A    between atoms: C_101  and  N_107 
REMARK   60  A    between atoms: N_126  and  C_129 
REMARK   61  A    between atoms: C_129  and  C_135 
REMARK   62  A    between atoms: C_130  and  C_135 
REMARK   63  A    between atoms: C_130  and  C_142 
REMARK   64  A    between atoms: N_132  and  C_139 
REMARK   65  A    between atoms: C_136  and  C_137 
REMARK   66  A    between atoms: C_136  and  C_146 
REMARK   67  A    between atoms: C_137  and  C_139 
REMARK   68  A    between atoms: N_141  and  C_152 
REMARK   69  A    between atoms: C_142  and  C_153 
REMARK   70  A    between atoms: C_142  and  C_159 
REMARK   71  A    between atoms: C_144  and  C_152 
REMARK   72  A    between atoms: C_144  and  C_156 
REMARK   73  A    between atoms: C_146  and  C_162 
REMARK   74  A    between atoms: C_146  and  C_153 
REMARK   75  A    between atoms: C_148  and  C_156 
REMARK   76  A    between atoms: C_148  and  C_149 
REMARK   77  A    between atoms: C_149  and  C_163 
REMARK   78  A    between atoms: C_150  and  C_161 
REMARK   79  A    between atoms: C_150  and  C_159 
REMARK   80  A    between atoms: C_150  and  C_160 
REMARK   81  A    between atoms: C_151  and  N_157 
REMARK   82  A    between atoms: C_151  and  C_154 
REMARK   83  A    between atoms: C_154  and  C_160 
REMARK   84  A    between atoms: C_162  and  C_163 
REMARK   85  A    between atoms: C_163  and  C_169 
REMARK   86  A    between atoms: C_166  and  C_171 
REMARK   87  A    between atoms: C_166  and  C_169 
REMARK   88  A    between atoms: N_167  and  C_171 
ROOT
HETATM    1  C   UNL     1       0.042  -0.915  -2.031  1.00  0.00     0.186 C 
HETATM    2  C   UNL     1       0.506  -0.477  -0.624  1.00  0.00     0.179 C 
HETATM    3  C   UNL     1      -1.344  -0.322  -2.361  1.00  0.00     0.187 C 
HETATM    4  C   UNL     1      -2.323  -0.461  -1.170  1.00  0.00     0.303 C 
HETATM    5  C   UNL     1      -1.711   0.165   0.132  1.00  0.00     0.296 C 
HETATM    6  O   UNL     1      -0.345   0.543  -0.070  1.00  0.00    -0.349 OA
ENDROOT
BRANCH   1   7
HETATM    7  O   UNL     1       0.999  -0.441  -2.988  1.00  0.00    -0.348 OA
BRANCH   7   8
HETATM    8  C   UNL     1       1.695  -1.467  -3.711  1.00  0.00     0.296 C 
HETATM    9  O   UNL     1       0.990  -2.682  -3.471  1.00  0.00    -0.349 OA
HETATM   10  C   UNL     1       1.639  -3.901  -3.864  1.00  0.00     0.179 C 
HETATM   11  C   UNL     1       3.150  -3.963  -3.559  1.00  0.00     0.186 C 
HETATM   12  C   UNL     1       3.593  -2.826  -2.646  1.00  0.00     0.187 C 
HETATM   13  C   UNL     1       3.202  -1.488  -3.281  1.00  0.00     0.303 C 
BRANCH  10  14
HETATM   14  C   UNL     1       1.340  -4.153  -5.351  1.00  0.00     0.198 C 
BRANCH  14  15
HETATM   15  O   UNL     1       0.528  -5.317  -5.508  1.00  0.00    -0.398 OA
HETATM   16  H   UNL     1      -0.010  -5.176  -6.311  1.00  0.00     0.209 HD
ENDBRANCH  14  15
ENDBRANCH  10  14
BRANCH  11  17
HETATM   17  O   UNL     1       3.451  -5.186  -2.868  1.00  0.00    -0.348 OA
BRANCH  17  18
HETATM   18  C   UNL     1       2.293  -5.916  -2.481  1.00  0.00     0.296 C 
HETATM   19  O   UNL     1       1.948  -5.555  -1.137  1.00  0.00    -0.351 OA
HETATM   20  C   UNL     1       0.583  -5.889  -0.813  1.00  0.00     0.150 C 
HETATM   21  C   UNL     1       0.157  -7.194  -1.512  1.00  0.00     0.068 C 
HETATM   22  C   UNL     1       1.377  -8.113  -1.677  1.00  0.00     0.158 C 
HETATM   23  C   UNL     1       2.481  -7.483  -2.592  1.00  0.00     0.303 C 
BRANCH  20  24
HETATM   24  C   UNL     1      -0.343  -4.687  -1.052  1.00  0.00     0.196 C 
BRANCH  24  25
HETATM   25  O   UNL     1      -1.042  -4.800  -2.288  1.00  0.00    -0.398 OA
HETATM   26  H   UNL     1      -1.066  -5.751  -2.504  1.00  0.00     0.209 HD
ENDBRANCH  24  25
ENDBRANCH  20  24
BRANCH  22  27
HETATM   27  O   UNL     1       1.905  -8.350  -0.361  1.00  0.00    -0.393 OA
HETATM   28  H   UNL     1       1.340  -7.863   0.272  1.00  0.00     0.210 HD
ENDBRANCH  22  27
BRANCH  23  29
HETATM   29  N   UNL     1       3.850  -7.950  -2.202  1.00  0.00     0.096 N 
HETATM   30  H   UNL     1       3.711  -8.851  -1.745  1.00  0.00     0.316 HD
BRANCH  29  31
HETATM   31  C   UNL     1       4.883  -8.061  -3.266  1.00  0.00     0.287 C 
BRANCH  31  32
HETATM   32  C   UNL     1       5.080  -9.543  -3.874  1.00  0.00     0.044 C 
HETATM   33  C   UNL     1       3.702 -10.195  -4.062  1.00  0.00     0.025 C 
BRANCH  32  34
HETATM   34  C   UNL     1       6.047 -10.471  -2.957  1.00  0.00     0.035 C 
BRANCH  34  35
HETATM   35  C   UNL     1       5.671 -11.049  -1.480  1.00  0.00     0.019 C 
HETATM   36  C   UNL     1       6.193  -9.942  -0.525  1.00  0.00     0.023 C 
BRANCH  35  37
HETATM   37  C   UNL     1       6.477 -12.436  -1.236  1.00  0.00     0.033 C 
BRANCH  37  38
HETATM   38  C   UNL     1       7.211 -13.404  -2.338  1.00  0.00     0.019 C 
HETATM   39  C   UNL     1       8.658 -12.932  -2.555  1.00  0.00     0.023 C 
BRANCH  38  40
HETATM   40  C   UNL     1       6.380 -13.210  -3.696  1.00  0.00     0.033 C 
BRANCH  40  41
HETATM   41  C   UNL     1       6.785 -13.523  -5.240  1.00  0.00     0.019 C 
HETATM   42  C   UNL     1       6.966 -15.064  -5.291  1.00  0.00     0.023 C 
BRANCH  41  43
HETATM   43  C   UNL     1       5.787 -13.080  -6.362  1.00  0.00     0.033 C 
BRANCH  43  44
HETATM   44  C   UNL     1       4.594 -13.928  -6.950  1.00  0.00     0.014 C 
HETATM   45  C   UNL     1       5.227 -14.936  -7.949  1.00  0.00     0.023 C 
HETATM   46  C   UNL     1       3.594 -13.121  -7.800  1.00  0.00     0.023 C 
BRANCH  44  47
HETATM   47  C   UNL     1       3.803 -14.675  -5.848  1.00  0.00     0.136 C 
HETATM   48  O   UNL     1       3.801 -15.909  -5.820  1.00  0.00    -0.297 OA
BRANCH  47  49
HETATM   49  C   UNL     1       2.942 -13.901  -4.853  1.00  0.00     0.109 C 
BRANCH  49  50
HETATM   50  C   UNL     1       1.500 -14.432  -4.854  1.00  0.00     0.279 C 
BRANCH  50  51
HETATM   51  N   UNL     1       0.572 -13.566  -5.610  1.00  0.00     0.080 N 
HETATM   52  C   UNL     1      -0.820 -13.998  -5.470  1.00  0.00     0.309 C 
HETATM   53  C   UNL     1       0.693 -12.176  -5.155  1.00  0.00     0.309 C 
ENDBRANCH  50  51
ENDBRANCH  49  50
ENDBRANCH  47  49
ENDBRANCH  44  47
ENDBRANCH  43  44
ENDBRANCH  41  43
BRANCH  41  54
HETATM   54  C   UNL     1       8.211 -12.921  -5.468  1.00  0.00     0.137 C 
HETATM   55  O   UNL     1       8.382 -11.721  -5.653  1.00  0.00    -0.297 OA
BRANCH  54  56
HETATM   56  C   UNL     1       9.371 -13.876  -5.661  1.00  0.00     0.109 C 
BRANCH  56  57
HETATM   57  C   UNL     1      10.586 -13.214  -6.311  1.00  0.00     0.279 C 
BRANCH  57  58
HETATM   58  N   UNL     1      11.410 -14.254  -6.964  1.00  0.00     0.080 N 
HETATM   59  C   UNL     1      12.833 -14.049  -6.680  1.00  0.00     0.309 C 
HETATM   60  C   UNL     1      11.009 -15.594  -6.549  1.00  0.00     0.309 C 
ENDBRANCH  57  58
ENDBRANCH  56  57
ENDBRANCH  54  56
ENDBRANCH  41  54
ENDBRANCH  40  41
ENDBRANCH  38  40
BRANCH  38  61
HETATM   61  C   UNL     1       7.287 -14.923  -2.024  1.00  0.00     0.137 C 
HETATM   62  O   UNL     1       8.287 -15.568  -2.358  1.00  0.00    -0.297 OA
BRANCH  61  63
HETATM   63  C   UNL     1       6.183 -15.643  -1.289  1.00  0.00     0.109 C 
BRANCH  63  64
HETATM   64  C   UNL     1       5.100 -16.228  -2.209  1.00  0.00     0.279 C 
BRANCH  64  65
HETATM   65  N   UNL     1       3.977 -16.800  -1.436  1.00  0.00     0.080 N 
HETATM   66  C   UNL     1       2.732 -16.781  -2.207  1.00  0.00     0.309 C 
HETATM   67  C   UNL     1       4.285 -18.180  -1.047  1.00  0.00     0.309 C 
ENDBRANCH  64  65
ENDBRANCH  63  64
ENDBRANCH  61  63
ENDBRANCH  38  61
ENDBRANCH  37  38
ENDBRANCH  35  37
BRANCH  35  68
HETATM   68  C   UNL     1       4.178 -11.338  -1.142  1.00  0.00     0.137 C 
HETATM   69  O   UNL     1       3.546 -10.490  -0.500  1.00  0.00    -0.297 OA
BRANCH  68  70
HETATM   70  C   UNL     1       3.478 -12.643  -1.547  1.00  0.00     0.109 C 
BRANCH  70  71
HETATM   71  C   UNL     1       1.935 -12.544  -1.469  1.00  0.00     0.279 C 
BRANCH  71  72
HETATM   72  N   UNL     1       1.177 -13.542  -0.686  1.00  0.00     0.080 N 
HETATM   73  C   UNL     1       0.475 -12.966   0.449  1.00  0.00     0.309 C 
HETATM   74  C   UNL     1       0.187 -14.191  -1.559  1.00  0.00     0.309 C 
ENDBRANCH  71  72
ENDBRANCH  70  71
ENDBRANCH  68  70
ENDBRANCH  35  68
ENDBRANCH  34  35
ENDBRANCH  32  34
BRANCH  32  75
HETATM   75  C   UNL     1       5.856  -9.285  -5.190  1.00  0.00     0.138 C 
HETATM   76  O   UNL     1       6.991  -8.790  -5.164  1.00  0.00    -0.297 OA
BRANCH  75  77
HETATM   77  C   UNL     1       5.198  -9.494  -6.536  1.00  0.00     0.109 C 
BRANCH  77  78
HETATM   78  C   UNL     1       5.046  -8.152  -7.230  1.00  0.00     0.279 C 
BRANCH  78  79
HETATM   79  N   UNL     1       4.025  -7.270  -6.646  1.00  0.00     0.080 N 
HETATM   80  C   UNL     1       2.879  -7.117  -7.543  1.00  0.00     0.309 C 
HETATM   81  C   UNL     1       4.607  -5.954  -6.363  1.00  0.00     0.309 C 
ENDBRANCH  78  79
ENDBRANCH  77  78
ENDBRANCH  75  77
ENDBRANCH  32  75
ENDBRANCH  31  32
ENDBRANCH  29  31
ENDBRANCH  23  29
ENDBRANCH  17  18
ENDBRANCH  11  17
BRANCH  12  82
HETATM   82  O   UNL     1       3.025  -2.975  -1.338  1.00  0.00    -0.391 OA
HETATM   83  H   UNL     1       3.608  -3.618  -0.883  1.00  0.00     0.210 HD
ENDBRANCH  12  82
BRANCH  13  84
HETATM   84  N   UNL     1       3.641  -0.374  -2.415  1.00  0.00     0.090 N 
HETATM   85  H   UNL     1       2.883   0.317  -2.446  1.00  0.00     0.313 HD
HETATM   86  H   UNL     1       4.424   0.106  -2.877  1.00  0.00     0.313 HD
ENDBRANCH  13  84
ENDBRANCH   7   8
ENDBRANCH   1   7
BRANCH   2  87
HETATM   87  C   UNL     1       0.656  -1.694   0.309  1.00  0.00     0.198 C 
BRANCH  87  88
HETATM   88  O   UNL     1       1.907  -1.688   0.983  1.00  0.00    -0.398 OA
HETATM   89  H   UNL     1       2.613  -1.729   0.313  1.00  0.00     0.209 HD
ENDBRANCH  87  88
ENDBRANCH   2  87
BRANCH   3  90
HETATM   90  O   UNL     1      -1.230   1.058  -2.747  1.00  0.00    -0.391 OA
HETATM   91  H   UNL     1      -0.275   1.243  -2.860  1.00  0.00     0.210 HD
ENDBRANCH   3  90
BRANCH   4  92
HETATM   92  N   UNL     1      -3.659   0.084  -1.504  1.00  0.00     0.090 N 
HETATM   93  H   UNL     1      -3.553   1.031  -1.878  1.00  0.00     0.313 HD
HETATM   94  H   UNL     1      -4.135   0.248  -0.607  1.00  0.00     0.313 HD
ENDBRANCH   4  92
BRANCH   5  95
HETATM   95  O   UNL     1      -2.413   1.366   0.516  1.00  0.00    -0.348 OA
BRANCH  95  96
HETATM   96  C   UNL     1      -2.734   1.507   1.931  1.00  0.00     0.186 C 
HETATM   97  C   UNL     1      -3.651   2.722   2.156  1.00  0.00     0.180 C 
HETATM   98  O   UNL     1      -4.870   2.389   2.818  1.00  0.00    -0.349 OA
HETATM   99  C   UNL     1      -4.786   1.555   3.972  1.00  0.00     0.286 C 
HETATM  100  C   UNL     1      -4.058   0.154   3.769  1.00  0.00     0.167 C 
HETATM  101  C   UNL     1      -3.465   0.188   2.329  1.00  0.00     0.177 C 
BRANCH  97 102
HETATM  102  C   UNL     1      -2.974   3.875   2.914  1.00  0.00     0.198 C 
BRANCH 102 103
HETATM  103  O   UNL     1      -3.923   4.896   3.216  1.00  0.00    -0.398 OA
HETATM  104  H   UNL     1      -4.766   4.655   2.784  1.00  0.00     0.209 HD
ENDBRANCH 102 103
ENDBRANCH  97 102
BRANCH  99 105
HETATM  105  O   UNL     1      -6.152   1.351   4.329  1.00  0.00    -0.348 OA
BRANCH 105 106
HETATM  106  C   UNL     1      -6.942   2.525   4.436  1.00  0.00     0.186 C 
HETATM  107  C   UNL     1      -8.409   2.211   4.077  1.00  0.00     0.176 C 
HETATM  108  O   UNL     1      -9.347   3.018   4.828  1.00  0.00    -0.379 OA
HETATM  109  C   UNL     1      -8.882   4.348   5.079  1.00  0.00     0.206 C 
HETATM  110  C   UNL     1      -7.645   4.357   6.003  1.00  0.00     0.272 C 
HETATM  111  C   UNL     1      -6.871   3.025   5.891  1.00  0.00     0.184 C 
BRANCH 107 112
HETATM  112  C   UNL     1      -8.709   2.365   2.581  1.00  0.00     0.198 C 
BRANCH 112 113
HETATM  113  O   UNL     1      -7.491   2.533   1.855  1.00  0.00    -0.398 OA
HETATM  114  H   UNL     1      -7.019   1.680   1.911  1.00  0.00     0.209 HD
ENDBRANCH 112 113
ENDBRANCH 107 112
BRANCH 110 115
HETATM  115  N   UNL     1      -8.009   4.639   7.405  1.00  0.00     0.087 N 
HETATM  116  H   UNL     1      -7.233   4.340   8.000  1.00  0.00     0.313 HD
HETATM  117  H   UNL     1      -8.752   3.982   7.664  1.00  0.00     0.313 HD
ENDBRANCH 110 115
BRANCH 111 118
HETATM  118  O   UNL     1      -7.405   2.062   6.820  1.00  0.00    -0.391 OA
HETATM  119  H   UNL     1      -8.267   1.766   6.476  1.00  0.00     0.210 HD
ENDBRANCH 111 118
ENDBRANCH 105 106
ENDBRANCH  99 105
BRANCH 100 120
HETATM  120  N   UNL     1      -5.017  -0.973   4.044  1.00  0.00    -0.389 N 
HETATM  121  H   UNL     1      -5.630  -1.022   3.224  1.00  0.00     0.159 HD
BRANCH 120 122
HETATM  122  C   UNL     1      -4.730  -2.230   4.749  1.00  0.00     0.073 C 
BRANCH 122 123
HETATM  123  C   UNL     1      -5.731  -2.820   5.856  1.00  0.00     0.049 C 
HETATM  124  C   UNL     1      -4.833  -3.522   6.888  1.00  0.00     0.029 C 
BRANCH 123 125
HETATM  125  C   UNL     1      -6.986  -3.792   5.436  1.00  0.00     0.039 C 
BRANCH 125 126
HETATM  126  C   UNL     1      -7.211  -4.385   3.898  1.00  0.00     0.019 C 
HETATM  127  C   UNL     1      -8.670  -4.910   3.994  1.00  0.00     0.023 C 
BRANCH 126 128
HETATM  128  C   UNL     1      -7.094  -3.393   2.700  1.00  0.00     0.137 C 
HETATM  129  O   UNL     1      -7.647  -2.290   2.799  1.00  0.00    -0.297 OA
BRANCH 128 130
HETATM  130  C   UNL     1      -6.344  -3.753   1.403  1.00  0.00     0.109 C 
BRANCH 130 131
HETATM  131  C   UNL     1      -7.256  -3.757   0.155  1.00  0.00     0.279 C 
BRANCH 131 132
HETATM  132  N   UNL     1      -6.837  -3.031  -1.060  1.00  0.00     0.080 N 
HETATM  133  C   UNL     1      -6.953  -1.587  -0.821  1.00  0.00     0.309 C 
HETATM  134  C   UNL     1      -7.627  -3.367  -2.232  1.00  0.00     0.309 C 
ENDBRANCH 131 132
ENDBRANCH 130 131
ENDBRANCH 128 130
ENDBRANCH 126 128
BRANCH 126 135
HETATM  135  C   UNL     1      -6.200  -5.620   3.508  1.00  0.00     0.033 C 
BRANCH 135 136
HETATM  136  C   UNL     1      -6.165  -7.155   4.171  1.00  0.00     0.019 C 
HETATM  137  C   UNL     1      -4.844  -7.332   4.938  1.00  0.00     0.023 C 
BRANCH 136 138
HETATM  138  C   UNL     1      -7.303  -7.565   5.150  1.00  0.00     0.137 C 
HETATM  139  O   UNL     1      -8.222  -8.290   4.751  1.00  0.00    -0.297 OA
BRANCH 138 140
HETATM  140  C   UNL     1      -7.322  -7.117   6.591  1.00  0.00     0.109 C 
BRANCH 140 141
HETATM  141  C   UNL     1      -8.217  -7.962   7.514  1.00  0.00     0.279 C 
BRANCH 141 142
HETATM  142  N   UNL     1      -9.420  -7.219   7.948  1.00  0.00     0.080 N 
HETATM  143  C   UNL     1     -10.618  -7.780   7.315  1.00  0.00     0.309 C 
HETATM  144  C   UNL     1      -9.322  -5.795   7.620  1.00  0.00     0.309 C 
ENDBRANCH 141 142
ENDBRANCH 140 141
ENDBRANCH 138 140
ENDBRANCH 136 138
BRANCH 136 145
HETATM  145  C   UNL     1      -6.198  -8.198   2.947  1.00  0.00     0.033 C 
BRANCH 145 146
HETATM  146  C   UNL     1      -6.689  -8.002   1.390  1.00  0.00     0.019 C 
HETATM  147  C   UNL     1      -8.033  -7.230   1.500  1.00  0.00     0.023 C 
BRANCH 146 148
HETATM  148  C   UNL     1      -5.743  -7.243   0.389  1.00  0.00     0.033 C 
BRANCH 148 149
HETATM  149  C   UNL     1      -4.424  -7.804  -0.280  1.00  0.00     0.014 C 
HETATM  150  C   UNL     1      -3.649  -6.571  -0.824  1.00  0.00     0.023 C 
HETATM  151  C   UNL     1      -4.659  -8.685  -1.525  1.00  0.00     0.023 C 
BRANCH 149 152
HETATM  152  C   UNL     1      -3.539  -8.604   0.712  1.00  0.00     0.136 C 
HETATM  153  O   UNL     1      -3.122  -8.063   1.739  1.00  0.00    -0.297 OA
BRANCH 152 154
HETATM  154  C   UNL     1      -3.097 -10.028   0.382  1.00  0.00     0.109 C 
BRANCH 154 155
HETATM  155  C   UNL     1      -1.706 -10.034  -0.274  1.00  0.00     0.279 C 
BRANCH 155 156
HETATM  156  N   UNL     1      -1.605 -10.993  -1.397  1.00  0.00     0.080 N 
HETATM  157  C   UNL     1      -2.748 -11.906  -1.445  1.00  0.00     0.309 C 
HETATM  158  C   UNL     1      -1.511 -10.271  -2.671  1.00  0.00     0.309 C 
ENDBRANCH 155 156
ENDBRANCH 154 155
ENDBRANCH 152 154
ENDBRANCH 149 152
ENDBRANCH 148 149
ENDBRANCH 146 148
BRANCH 146 159
HETATM  159  C   UNL     1      -7.056  -9.419   0.844  1.00  0.00     0.137 C 
HETATM  160  O   UNL     1      -6.346 -10.404   1.069  1.00  0.00    -0.297 OA
BRANCH 159 161
HETATM  161  C   UNL     1      -8.200  -9.540  -0.140  1.00  0.00     0.109 C 
BRANCH 161 162
HETATM  162  C   UNL     1      -7.822 -10.288  -1.421  1.00  0.00     0.279 C 
BRANCH 162 163
HETATM  163  N   UNL     1      -8.770 -11.405  -1.625  1.00  0.00     0.080 N 
HETATM  164  C   UNL     1      -8.347 -12.608  -0.914  1.00  0.00     0.309 C 
HETATM  165  C   UNL     1      -8.932 -11.702  -3.050  1.00  0.00     0.309 C 
ENDBRANCH 162 163
ENDBRANCH 161 162
ENDBRANCH 159 161
ENDBRANCH 146 159
ENDBRANCH 145 146
ENDBRANCH 136 145
ENDBRANCH 135 136
ENDBRANCH 126 135
ENDBRANCH 125 126
ENDBRANCH 123 125
BRANCH 123 166
HETATM  166  C   UNL     1      -6.404  -1.494   6.313  1.00  0.00     0.141 C 
HETATM  167  O   UNL     1      -5.747  -0.579   6.827  1.00  0.00    -0.297 OA
BRANCH 166 168
HETATM  168  C   UNL     1      -7.904  -1.344   6.249  1.00  0.00     0.110 C 
BRANCH 168 169
HETATM  169  C   UNL     1      -8.464  -1.313   7.654  1.00  0.00     0.279 C 
BRANCH 169 170
HETATM  170  N   UNL     1      -9.820  -0.759   7.781  1.00  0.00     0.080 N 
HETATM  171  C   UNL     1     -10.792  -1.811   8.079  1.00  0.00     0.309 C 
HETATM  172  C   UNL     1     -10.199  -0.105   6.524  1.00  0.00     0.309 C 
ENDBRANCH 169 170
ENDBRANCH 168 169
ENDBRANCH 166 168
ENDBRANCH 123 166
ENDBRANCH 122 123
ENDBRANCH 120 122
ENDBRANCH 100 120
BRANCH 101 173
HETATM  173  O   UNL     1      -4.526  -0.051   1.378  1.00  0.00    -0.391 OA
HETATM  174  H   UNL     1      -4.648  -1.021   1.341  1.00  0.00     0.210 HD
ENDBRANCH 101 173
ENDBRANCH  95  96
ENDBRANCH   5  95
TORSDOF 88
ENDMDL
MODEL 9
REMARK VINA RESULT:      -4.4     19.349     27.831
REMARK WARNING: 32 MAX_TORS EXCEEDED!!!
REMARK  88 active torsions:
REMARK  status: ('A' for Active; 'I' for Inactive)
REMARK    1  A    between atoms: C_1  and  O_28 
REMARK    2  A    between atoms: C_2  and  C_6 
REMARK    3  A    between atoms: C_3  and  O_8 
REMARK    4  A    between atoms: C_4  and  N_10 
REMARK    5  A    between atoms: C_5  and  O_11 
REMARK    6  A    between atoms: C_6  and  O_65 
REMARK    7  A    between atoms: O_11  and  C_18 
REMARK    8  A    between atoms: O_13  and  C_16 
REMARK    9  A    between atoms: C_15  and  C_21 
REMARK   10  A    between atoms: O_17  and  C_20 
REMARK   11  A    between atoms: O_17  and  C_39 
REMARK   12  A    between atoms: N_19  and  C_22 
REMARK   13  A    between atoms: N_19  and  C_161 
REMARK   14  A    between atoms: C_21  and  O_67 
REMARK   15  A    between atoms: O_24  and  C_27 
REMARK   16  A    between atoms: C_26  and  C_32 
REMARK   17  A    between atoms: O_28  and  C_31 
REMARK   18  A    between atoms: C_29  and  O_49 
REMARK   19  A    between atoms: N_30  and  C_33 
REMARK   20  A    between atoms: C_32  and  O_63 
REMARK   21  A    between atoms: O_35  and  C_38 
REMARK   22  A    between atoms: C_37  and  C_42 
REMARK   23  A    between atoms: N_40  and  C_43 
REMARK   24  A    between atoms: C_42  and  O_69 
REMARK   25  A    between atoms: O_45  and  C_48 
REMARK   26  A    between atoms: C_47  and  C_53 
REMARK   27  A    between atoms: O_49  and  C_52 
REMARK   28  A    between atoms: N_51  and  C_54 
REMARK   29  A    between atoms: N_51  and  C_71 
REMARK   30  A    between atoms: C_53  and  O_61 
REMARK   31  A    between atoms: C_71  and  C_73 
REMARK   32  A    between atoms: C_73  and  C_74 
REMARK   33  A    between atoms: C_73  and  C_83 
REMARK   34  A    between atoms: C_74  and  C_75 
REMARK   35  A    between atoms: C_75  and  C_76 
REMARK   36  A    between atoms: C_75  and  C_87 
REMARK   37  A    between atoms: C_76  and  C_77 
REMARK   38  A    between atoms: C_77  and  C_78 
REMARK   39  A    between atoms: C_77  and  C_91 
REMARK   40  A    between atoms: C_78  and  C_79 
REMARK   41  A    between atoms: C_79  and  C_80 
REMARK   42  A    between atoms: C_79  and  C_95 
REMARK   43  A    between atoms: C_80  and  C_81 
REMARK   44  A    between atoms: C_81  and  C_99 
REMARK   45  A    between atoms: C_83  and  C_84 
REMARK   46  A    between atoms: C_84  and  C_85 
REMARK   47  A    between atoms: C_85  and  N_103 
REMARK   48  A    between atoms: C_87  and  C_88 
REMARK   49  A    between atoms: C_88  and  C_89 
REMARK   50  A    between atoms: C_89  and  N_104 
REMARK   51  A    between atoms: C_91  and  C_92 
REMARK   52  A    between atoms: C_92  and  C_93 
REMARK   53  A    between atoms: C_93  and  N_105 
REMARK   54  A    between atoms: C_95  and  C_96 
REMARK   55  A    between atoms: C_96  and  C_97 
REMARK   56  A    between atoms: C_97  and  N_106 
REMARK   57  A    between atoms: C_99  and  C_100 
REMARK   58  A    between atoms: C_100  and  C_101 
REMARK   59  A    between atoms: C_101  and  N_107 
REMARK   60  A    between atoms: N_126  and  C_129 
REMARK   61  A    between atoms: C_129  and  C_135 
REMARK   62  A    between atoms: C_130  and  C_135 
REMARK   63  A    between atoms: C_130  and  C_142 
REMARK   64  A    between atoms: N_132  and  C_139 
REMARK   65  A    between atoms: C_136  and  C_137 
REMARK   66  A    between atoms: C_136  and  C_146 
REMARK   67  A    between atoms: C_137  and  C_139 
REMARK   68  A    between atoms: N_141  and  C_152 
REMARK   69  A    between atoms: C_142  and  C_153 
REMARK   70  A    between atoms: C_142  and  C_159 
REMARK   71  A    between atoms: C_144  and  C_152 
REMARK   72  A    between atoms: C_144  and  C_156 
REMARK   73  A    between atoms: C_146  and  C_162 
REMARK   74  A    between atoms: C_146  and  C_153 
REMARK   75  A    between atoms: C_148  and  C_156 
REMARK   76  A    between atoms: C_148  and  C_149 
REMARK   77  A    between atoms: C_149  and  C_163 
REMARK   78  A    between atoms: C_150  and  C_161 
REMARK   79  A    between atoms: C_150  and  C_159 
REMARK   80  A    between atoms: C_150  and  C_160 
REMARK   81  A    between atoms: C_151  and  N_157 
REMARK   82  A    between atoms: C_151  and  C_154 
REMARK   83  A    between atoms: C_154  and  C_160 
REMARK   84  A    between atoms: C_162  and  C_163 
REMARK   85  A    between atoms: C_163  and  C_169 
REMARK   86  A    between atoms: C_166  and  C_171 
REMARK   87  A    between atoms: C_166  and  C_169 
REMARK   88  A    between atoms: N_167  and  C_171 
ROOT
HETATM    1  C   UNL     1       0.381   1.047  -1.715  1.00  0.00     0.186 C 
HETATM    2  C   UNL     1       0.434  -0.493  -1.828  1.00  0.00     0.179 C 
HETATM    3  C   UNL     1       1.524   1.696  -2.524  1.00  0.00     0.187 C 
HETATM    4  C   UNL     1       2.872   0.971  -2.290  1.00  0.00     0.303 C 
HETATM    5  C   UNL     1       2.739  -0.563  -2.587  1.00  0.00     0.296 C 
HETATM    6  O   UNL     1       1.375  -0.927  -2.826  1.00  0.00    -0.349 OA
ENDROOT
BRANCH   1   7
HETATM    7  O   UNL     1      -0.879   1.494  -2.235  1.00  0.00    -0.348 OA
BRANCH   7   8
HETATM    8  C   UNL     1      -1.767   2.071  -1.267  1.00  0.00     0.296 C 
HETATM    9  O   UNL     1      -1.081   2.038  -0.018  1.00  0.00    -0.349 OA
HETATM   10  C   UNL     1      -1.857   2.310   1.160  1.00  0.00     0.179 C 
HETATM   11  C   UNL     1      -3.260   1.668   1.179  1.00  0.00     0.186 C 
HETATM   12  C   UNL     1      -3.431   0.642   0.064  1.00  0.00     0.187 C 
HETATM   13  C   UNL     1      -3.135   1.307  -1.284  1.00  0.00     0.303 C 
BRANCH  10  14
HETATM   14  C   UNL     1      -1.917   3.833   1.361  1.00  0.00     0.198 C 
BRANCH  14  15
HETATM   15  O   UNL     1      -0.705   4.308   1.947  1.00  0.00    -0.398 OA
HETATM   16  H   UNL     1      -0.680   3.960   2.859  1.00  0.00     0.209 HD
ENDBRANCH  14  15
ENDBRANCH  10  14
BRANCH  11  17
HETATM   17  O   UNL     1      -3.451   0.966   2.417  1.00  0.00    -0.348 OA
BRANCH  17  18
HETATM   18  C   UNL     1      -4.345   1.625   3.308  1.00  0.00     0.296 C 
HETATM   19  O   UNL     1      -3.585   2.466   4.185  1.00  0.00    -0.351 OA
HETATM   20  C   UNL     1      -4.396   3.481   4.810  1.00  0.00     0.150 C 
HETATM   21  C   UNL     1      -5.810   2.947   5.108  1.00  0.00     0.068 C 
HETATM   22  C   UNL     1      -5.743   1.437   5.386  1.00  0.00     0.158 C 
HETATM   23  C   UNL     1      -5.234   0.622   4.149  1.00  0.00     0.303 C 
BRANCH  20  24
HETATM   24  C   UNL     1      -4.347   4.789   4.007  1.00  0.00     0.196 C 
BRANCH  24  25
HETATM   25  O   UNL     1      -4.449   5.930   4.855  1.00  0.00    -0.398 OA
HETATM   26  H   UNL     1      -3.732   6.535   4.587  1.00  0.00     0.209 HD
ENDBRANCH  24  25
ENDBRANCH  20  24
BRANCH  22  27
HETATM   27  O   UNL     1      -4.850   1.254   6.498  1.00  0.00    -0.393 OA
HETATM   28  H   UNL     1      -3.969   1.037   6.132  1.00  0.00     0.210 HD
ENDBRANCH  22  27
BRANCH  23  29
HETATM   29  N   UNL     1      -4.503  -0.615   4.570  1.00  0.00     0.096 N 
HETATM   30  H   UNL     1      -4.612  -0.666   5.582  1.00  0.00     0.316 HD
BRANCH  29  31
HETATM   31  C   UNL     1      -4.890  -1.907   3.941  1.00  0.00     0.287 C 
BRANCH  31  32
HETATM   32  C   UNL     1      -5.453  -3.023   4.963  1.00  0.00     0.044 C 
HETATM   33  C   UNL     1      -4.468  -3.172   6.132  1.00  0.00     0.025 C 
BRANCH  32  34
HETATM   34  C   UNL     1      -5.724  -4.451   4.240  1.00  0.00     0.035 C 
BRANCH  34  35
HETATM   35  C   UNL     1      -6.258  -5.798   4.987  1.00  0.00     0.019 C 
HETATM   36  C   UNL     1      -4.947  -6.559   5.321  1.00  0.00     0.023 C 
BRANCH  35  37
HETATM   37  C   UNL     1      -7.163  -6.654   3.948  1.00  0.00     0.033 C 
BRANCH  37  38
HETATM   38  C   UNL     1      -7.396  -6.405   2.343  1.00  0.00     0.019 C 
HETATM   39  C   UNL     1      -8.064  -5.037   2.127  1.00  0.00     0.023 C 
BRANCH  38  40
HETATM   40  C   UNL     1      -8.398  -7.565   1.874  1.00  0.00     0.033 C 
BRANCH  40  41
HETATM   41  C   UNL     1      -8.242  -9.184   1.924  1.00  0.00     0.019 C 
HETATM   42  C   UNL     1      -7.236  -9.443   3.079  1.00  0.00     0.023 C 
BRANCH  41  43
HETATM   43  C   UNL     1      -9.535 -10.035   2.162  1.00  0.00     0.033 C 
BRANCH  43  44
HETATM   44  C   UNL     1     -10.912  -9.518   2.729  1.00  0.00     0.014 C 
HETATM   45  C   UNL     1     -11.775 -10.781   3.001  1.00  0.00     0.023 C 
HETATM   46  C   UNL     1     -11.745  -8.691   1.730  1.00  0.00     0.023 C 
BRANCH  44  47
HETATM   47  C   UNL     1     -10.741  -8.685   4.024  1.00  0.00     0.136 C 
HETATM   48  O   UNL     1     -10.196  -9.187   5.012  1.00  0.00    -0.297 OA
BRANCH  47  49
HETATM   49  C   UNL     1     -11.329  -7.281   4.124  1.00  0.00     0.109 C 
BRANCH  49  50
HETATM   50  C   UNL     1     -12.174  -7.135   5.400  1.00  0.00     0.279 C 
BRANCH  50  51
HETATM   51  N   UNL     1     -13.598  -6.860   5.114  1.00  0.00     0.080 N 
HETATM   52  C   UNL     1     -14.256  -7.994   4.463  1.00  0.00     0.309 C 
HETATM   53  C   UNL     1     -14.310  -6.538   6.356  1.00  0.00     0.309 C 
ENDBRANCH  50  51
ENDBRANCH  49  50
ENDBRANCH  47  49
ENDBRANCH  44  47
ENDBRANCH  43  44
ENDBRANCH  41  43
BRANCH  41  54
HETATM   54  C   UNL     1      -7.504  -9.612   0.614  1.00  0.00     0.137 C 
HETATM   55  O   UNL     1      -6.337  -9.990   0.625  1.00  0.00    -0.297 OA
BRANCH  54  56
HETATM   56  C   UNL     1      -8.192  -9.361  -0.713  1.00  0.00     0.109 C 
BRANCH  56  57
HETATM   57  C   UNL     1      -7.222  -8.942  -1.817  1.00  0.00     0.279 C 
BRANCH  57  58
HETATM   58  N   UNL     1      -7.969  -8.791  -3.084  1.00  0.00     0.080 N 
HETATM   59  C   UNL     1      -7.256  -9.432  -4.192  1.00  0.00     0.309 C 
HETATM   60  C   UNL     1      -9.317  -9.338  -2.979  1.00  0.00     0.309 C 
ENDBRANCH  57  58
ENDBRANCH  56  57
ENDBRANCH  54  56
ENDBRANCH  41  54
ENDBRANCH  40  41
ENDBRANCH  38  40
BRANCH  38  61
HETATM   61  C   UNL     1      -6.147  -6.434   1.422  1.00  0.00     0.137 C 
HETATM   62  O   UNL     1      -5.093  -6.932   1.836  1.00  0.00    -0.297 OA
BRANCH  61  63
HETATM   63  C   UNL     1      -6.180  -5.898   0.012  1.00  0.00     0.109 C 
BRANCH  63  64
HETATM   64  C   UNL     1      -5.219  -4.726  -0.233  1.00  0.00     0.279 C 
BRANCH  64  65
HETATM   65  N   UNL     1      -5.176  -4.342  -1.660  1.00  0.00     0.080 N 
HETATM   66  C   UNL     1      -6.405  -4.730  -2.357  1.00  0.00     0.309 C 
HETATM   67  C   UNL     1      -4.985  -2.894  -1.785  1.00  0.00     0.309 C 
ENDBRANCH  64  65
ENDBRANCH  63  64
ENDBRANCH  61  63
ENDBRANCH  38  61
ENDBRANCH  37  38
ENDBRANCH  35  37
BRANCH  35  68
HETATM   68  C   UNL     1      -7.098  -5.652   6.292  1.00  0.00     0.137 C 
HETATM   69  O   UNL     1      -6.502  -5.438   7.354  1.00  0.00    -0.297 OA
BRANCH  68  70
HETATM   70  C   UNL     1      -8.627  -5.798   6.309  1.00  0.00     0.109 C 
BRANCH  70  71
HETATM   71  C   UNL     1      -9.166  -6.286   7.676  1.00  0.00     0.279 C 
BRANCH  71  72
HETATM   72  N   UNL     1      -9.594  -7.691   7.832  1.00  0.00     0.080 N 
HETATM   73  C   UNL     1      -8.483  -8.613   8.000  1.00  0.00     0.309 C 
HETATM   74  C   UNL     1     -10.468  -7.803   9.010  1.00  0.00     0.309 C 
ENDBRANCH  71  72
ENDBRANCH  70  71
ENDBRANCH  68  70
ENDBRANCH  35  68
ENDBRANCH  34  35
ENDBRANCH  32  34
BRANCH  32  75
HETATM   75  C   UNL     1      -6.845  -2.470   5.359  1.00  0.00     0.138 C 
HETATM   76  O   UNL     1      -7.788  -2.509   4.557  1.00  0.00    -0.297 OA
BRANCH  75  77
HETATM   77  C   UNL     1      -7.051  -1.745   6.670  1.00  0.00     0.109 C 
BRANCH  77  78
HETATM   78  C   UNL     1      -8.254  -2.335   7.382  1.00  0.00     0.279 C 
BRANCH  78  79
HETATM   79  N   UNL     1      -9.381  -1.408   7.557  1.00  0.00     0.080 N 
HETATM   80  C   UNL     1     -10.534  -1.812   6.752  1.00  0.00     0.309 C 
HETATM   81  C   UNL     1      -8.971  -0.050   7.184  1.00  0.00     0.309 C 
ENDBRANCH  78  79
ENDBRANCH  77  78
ENDBRANCH  75  77
ENDBRANCH  32  75
ENDBRANCH  31  32
ENDBRANCH  29  31
ENDBRANCH  23  29
ENDBRANCH  17  18
ENDBRANCH  11  17
BRANCH  12  82
HETATM   82  O   UNL     1      -2.587  -0.496   0.288  1.00  0.00    -0.391 OA
HETATM   83  H   UNL     1      -2.355  -0.453   1.239  1.00  0.00     0.210 HD
ENDBRANCH  12  82
BRANCH  13  84
HETATM   84  N   UNL     1      -3.314   0.328  -2.376  1.00  0.00     0.090 N 
HETATM   85  H   UNL     1      -2.440   0.350  -2.914  1.00  0.00     0.313 HD
HETATM   86  H   UNL     1      -4.012   0.700  -3.033  1.00  0.00     0.313 HD
ENDBRANCH  13  84
ENDBRANCH   7   8
ENDBRANCH   1   7
BRANCH   2  87
HETATM   87  C   UNL     1       0.690  -1.136  -0.452  1.00  0.00     0.198 C 
BRANCH  87  88
HETATM   88  O   UNL     1       0.310  -0.273   0.610  1.00  0.00    -0.398 OA
HETATM   89  H   UNL     1       1.102  -0.077   1.141  1.00  0.00     0.209 HD
ENDBRANCH  87  88
ENDBRANCH   2  87
BRANCH   3  90
HETATM   90  O   UNL     1       1.211   1.715  -3.926  1.00  0.00    -0.391 OA
HETATM   91  H   UNL     1       1.928   1.227  -4.383  1.00  0.00     0.210 HD
ENDBRANCH   3  90
BRANCH   4  92
HETATM   92  N   UNL     1       3.970   1.618  -3.046  1.00  0.00     0.090 N 
HETATM   93  H   UNL     1       3.648   2.522  -3.400  1.00  0.00     0.313 HD
HETATM   94  H   UNL     1       4.087   1.067  -3.907  1.00  0.00     0.313 HD
ENDBRANCH   4  92
BRANCH   5  95
HETATM   95  O   UNL     1       3.472  -0.932  -3.774  1.00  0.00    -0.348 OA
BRANCH  95  96
HETATM   96  C   UNL     1       2.914  -2.016  -4.573  1.00  0.00     0.186 C 
HETATM   97  C   UNL     1       2.901  -1.635  -6.064  1.00  0.00     0.180 C 
HETATM   98  O   UNL     1       3.598  -2.570  -6.886  1.00  0.00    -0.349 OA
HETATM   99  C   UNL     1       3.331  -3.956  -6.682  1.00  0.00     0.286 C 
HETATM  100  C   UNL     1       3.556  -4.498  -5.201  1.00  0.00     0.167 C 
HETATM  101  C   UNL     1       3.849  -3.241  -4.328  1.00  0.00     0.177 C 
BRANCH  97 102
HETATM  102  C   UNL     1       1.490  -1.427  -6.635  1.00  0.00     0.198 C 
BRANCH 102 103
HETATM  103  O   UNL     1       0.715  -0.611  -5.758  1.00  0.00    -0.398 OA
HETATM  104  H   UNL     1       1.311  -0.276  -5.059  1.00  0.00     0.209 HD
ENDBRANCH 102 103
ENDBRANCH  97 102
BRANCH  99 105
HETATM  105  O   UNL     1       4.231  -4.600  -7.581  1.00  0.00    -0.348 OA
BRANCH 105 106
HETATM  106  C   UNL     1       4.989  -3.738  -8.415  1.00  0.00     0.186 C 
HETATM  107  C   UNL     1       6.463  -4.192  -8.446  1.00  0.00     0.176 C 
HETATM  108  O   UNL     1       7.095  -3.931  -9.722  1.00  0.00    -0.379 OA
HETATM  109  C   UNL     1       6.648  -2.721 -10.343  1.00  0.00     0.206 C 
HETATM  110  C   UNL     1       5.156  -2.800 -10.739  1.00  0.00     0.272 C 
HETATM  111  C   UNL     1       4.406  -3.807  -9.839  1.00  0.00     0.184 C 
BRANCH 107 112
HETATM  112  C   UNL     1       7.310  -3.563  -7.334  1.00  0.00     0.198 C 
BRANCH 112 113
HETATM  113  O   UNL     1       6.995  -4.168  -6.080  1.00  0.00    -0.398 OA
HETATM  114  H   UNL     1       6.048  -3.989  -5.921  1.00  0.00     0.209 HD
ENDBRANCH 112 113
ENDBRANCH 107 112
BRANCH 110 115
HETATM  115  N   UNL     1       4.984  -3.136 -12.165  1.00  0.00     0.087 N 
HETATM  116  H   UNL     1       4.143  -2.662 -12.502  1.00  0.00     0.313 HD
HETATM  117  H   UNL     1       4.715  -4.124 -12.214  1.00  0.00     0.313 HD
ENDBRANCH 110 115
BRANCH 111 118
HETATM  118  O   UNL     1       4.496  -5.132 -10.397  1.00  0.00    -0.391 OA
HETATM  119  H   UNL     1       3.794  -5.672  -9.988  1.00  0.00     0.210 HD
ENDBRANCH 111 118
ENDBRANCH 105 106
ENDBRANCH  99 105
BRANCH 100 120
HETATM  120  N   UNL     1       4.629  -5.552  -5.193  1.00  0.00    -0.389 N 
HETATM  121  H   UNL     1       5.503  -5.058  -4.984  1.00  0.00     0.159 HD
BRANCH 120 122
HETATM  122  C   UNL     1       4.507  -6.938  -4.719  1.00  0.00     0.073 C 
BRANCH 122 123
HETATM  123  C   UNL     1       4.754  -8.186  -5.697  1.00  0.00     0.049 C 
HETATM  124  C   UNL     1       3.662  -8.084  -6.775  1.00  0.00     0.029 C 
BRANCH 123 125
HETATM  125  C   UNL     1       4.842  -9.719  -5.116  1.00  0.00     0.039 C 
BRANCH 125 126
HETATM  126  C   UNL     1       4.125 -10.202  -3.694  1.00  0.00     0.019 C 
HETATM  127  C   UNL     1       4.049 -11.739  -3.909  1.00  0.00     0.023 C 
BRANCH 126 128
HETATM  128  C   UNL     1       4.867  -9.901  -2.355  1.00  0.00     0.137 C 
HETATM  129  O   UNL     1       4.657  -8.814  -1.803  1.00  0.00    -0.297 OA
BRANCH 128 130
HETATM  130  C   UNL     1       5.861 -10.896  -1.724  1.00  0.00     0.109 C 
BRANCH 130 131
HETATM  131  C   UNL     1       7.157 -11.064  -2.549  1.00  0.00     0.279 C 
BRANCH 131 132
HETATM  132  N   UNL     1       7.458 -12.363  -3.182  1.00  0.00     0.080 N 
HETATM  133  C   UNL     1       8.656 -12.937  -2.555  1.00  0.00     0.309 C 
HETATM  134  C   UNL     1       7.692 -12.266  -4.613  1.00  0.00     0.309 C 
ENDBRANCH 131 132
ENDBRANCH 130 131
ENDBRANCH 128 130
ENDBRANCH 126 128
BRANCH 126 135
HETATM  135  C   UNL     1       2.615  -9.595  -3.473  1.00  0.00     0.033 C 
BRANCH 135 136
HETATM  136  C   UNL     1       1.165 -10.275  -3.954  1.00  0.00     0.019 C 
HETATM  137  C   UNL     1       1.296 -10.738  -5.415  1.00  0.00     0.023 C 
BRANCH 136 138
HETATM  138  C   UNL     1       0.614 -11.490  -3.153  1.00  0.00     0.137 C 
HETATM  139  O   UNL     1      -0.002 -12.384  -3.745  1.00  0.00    -0.297 OA
BRANCH 138 140
HETATM  140  C   UNL     1       0.818 -11.629  -1.664  1.00  0.00     0.109 C 
BRANCH 140 141
HETATM  141  C   UNL     1       1.574 -12.898  -1.236  1.00  0.00     0.279 C 
BRANCH 141 142
HETATM  142  N   UNL     1       0.780 -13.727  -0.303  1.00  0.00     0.080 N 
HETATM  143  C   UNL     1       0.165 -14.849  -1.021  1.00  0.00     0.309 C 
HETATM  144  C   UNL     1      -0.268 -12.943   0.356  1.00  0.00     0.309 C 
ENDBRANCH 141 142
ENDBRANCH 140 141
ENDBRANCH 138 140
ENDBRANCH 136 138
BRANCH 136 145
HETATM  145  C   UNL     1       0.052  -9.116  -3.877  1.00  0.00     0.033 C 
BRANCH 145 146
HETATM  146  C   UNL     1      -1.558  -9.203  -3.548  1.00  0.00     0.019 C 
HETATM  147  C   UNL     1      -2.102 -10.265  -4.543  1.00  0.00     0.023 C 
BRANCH 146 148
HETATM  148  C   UNL     1      -2.012  -9.585  -2.092  1.00  0.00     0.033 C 
BRANCH 148 149
HETATM  149  C   UNL     1      -1.868  -8.699  -0.790  1.00  0.00     0.014 C 
HETATM  150  C   UNL     1      -2.195  -9.628   0.413  1.00  0.00     0.023 C 
HETATM  151  C   UNL     1      -2.896  -7.553  -0.675  1.00  0.00     0.023 C 
BRANCH 149 152
HETATM  152  C   UNL     1      -0.451  -8.088  -0.630  1.00  0.00     0.136 C 
HETATM  153  O   UNL     1       0.503  -8.814  -0.337  1.00  0.00    -0.297 OA
BRANCH 152 154
HETATM  154  C   UNL     1      -0.239  -6.579  -0.737  1.00  0.00     0.109 C 
BRANCH 154 155
HETATM  155  C   UNL     1       0.782  -6.093   0.305  1.00  0.00     0.279 C 
BRANCH 155 156
HETATM  156  N   UNL     1       1.160  -4.674   0.119  1.00  0.00     0.080 N 
HETATM  157  C   UNL     1       1.907  -4.149   1.263  1.00  0.00     0.309 C 
HETATM  158  C   UNL     1       1.969  -4.521  -1.096  1.00  0.00     0.309 C 
ENDBRANCH 155 156
ENDBRANCH 154 155
ENDBRANCH 152 154
ENDBRANCH 149 152
ENDBRANCH 148 149
ENDBRANCH 146 148
BRANCH 146 159
HETATM  159  C   UNL     1      -2.189  -7.844  -3.989  1.00  0.00     0.137 C 
HETATM  160  O   UNL     1      -3.396  -7.740  -4.231  1.00  0.00    -0.297 OA
BRANCH 159 161
HETATM  161  C   UNL     1      -1.267  -6.689  -4.312  1.00  0.00     0.109 C 
BRANCH 161 162
HETATM  162  C   UNL     1      -1.823  -5.329  -3.882  1.00  0.00     0.279 C 
BRANCH 162 163
HETATM  163  N   UNL     1      -2.234  -4.573  -5.085  1.00  0.00     0.080 N 
HETATM  164  C   UNL     1      -1.469  -3.339  -5.232  1.00  0.00     0.309 C 
HETATM  165  C   UNL     1      -3.666  -4.269  -5.049  1.00  0.00     0.309 C 
ENDBRANCH 162 163
ENDBRANCH 161 162
ENDBRANCH 159 161
ENDBRANCH 146 159
ENDBRANCH 145 146
ENDBRANCH 136 145
ENDBRANCH 135 136
ENDBRANCH 126 135
ENDBRANCH 125 126
ENDBRANCH 123 125
BRANCH 123 166
HETATM  166  C   UNL     1       6.206  -7.860  -6.152  1.00  0.00     0.141 C 
HETATM  167  O   UNL     1       6.436  -7.002  -7.014  1.00  0.00    -0.297 OA
BRANCH 166 168
HETATM  168  C   UNL     1       7.364  -8.678  -5.634  1.00  0.00     0.110 C 
BRANCH 168 169
HETATM  169  C   UNL     1       8.101  -9.295  -6.800  1.00  0.00     0.279 C 
BRANCH 169 170
HETATM  170  N   UNL     1       9.476  -8.816  -7.003  1.00  0.00     0.080 N 
HETATM  171  C   UNL     1       9.592  -8.062  -8.252  1.00  0.00     0.309 C 
HETATM  172  C   UNL     1      10.389  -9.962  -7.056  1.00  0.00     0.309 C 
ENDBRANCH 169 170
ENDBRANCH 168 169
ENDBRANCH 166 168
ENDBRANCH 123 166
ENDBRANCH 122 123
ENDBRANCH 120 122
ENDBRANCH 100 120
BRANCH 101 173
HETATM  173  O   UNL     1       5.215  -2.825  -4.547  1.00  0.00    -0.391 OA
HETATM  174  H   UNL     1       5.203  -2.252  -5.340  1.00  0.00     0.210 HD
ENDBRANCH 101 173
ENDBRANCH  95  96
ENDBRANCH   5  95
TORSDOF 88
ENDMDL
