MODEL 1
REMARK VINA RESULT:      -6.9      0.000      0.000
REMARK WARNING: 32 MAX_TORS EXCEEDED!!!
REMARK  61 active torsions:
REMARK  status: ('A' for Active; 'I' for Inactive)
REMARK    1  A    between atoms: C_1  and  O_30 
REMARK    2  A    between atoms: C_2  and  C_6 
REMARK    3  A    between atoms: C_3  and  O_9 
REMARK    4  A    between atoms: C_4  and  O_11 
REMARK    5  A    between atoms: C_5  and  O_12 
REMARK    6  A    between atoms: C_6  and  O_7 
REMARK    7  A    between atoms: O_7  and  C_147 
REMARK    8  A    between atoms: O_11  and  C_107 
REMARK    9  A    between atoms: O_12  and  C_20 
REMARK   10  A    between atoms: O_14  and  C_18 
REMARK   11  A    between atoms: O_21  and  C_24 
REMARK   12  A    between atoms: O_26  and  C_29 
REMARK   13  A    between atoms: C_28  and  C_34 
REMARK   14  A    between atoms: O_30  and  C_33 
REMARK   15  A    between atoms: C_31  and  O_53 
REMARK   16  A    between atoms: O_32  and  C_35 
REMARK   17  A    between atoms: C_34  and  O_59 
REMARK   18  A    between atoms: O_37  and  C_41 
REMARK   19  A    between atoms: O_43  and  C_46 
REMARK   20  A    between atoms: O_48  and  C_52 
REMARK   21  A    between atoms: C_50  and  C_57 
REMARK   22  A    between atoms: O_51  and  C_57 
REMARK   23  A    between atoms: O_51  and  C_60 
REMARK   24  A    between atoms: O_53  and  C_56 
REMARK   25  A    between atoms: O_55  and  C_58 
REMARK   26  A    between atoms: O_55  and  C_61 
REMARK   27  A    between atoms: O_59  and  C_142 
REMARK   28  A    between atoms: C_60  and  C_137 
REMARK   29  A    between atoms: C_61  and  C_62 
REMARK   30  A    between atoms: C_62  and  C_63 
REMARK   31  A    between atoms: C_62  and  N_76 
REMARK   32  A    between atoms: C_63  and  C_64 
REMARK   33  A    between atoms: C_64  and  C_65 
REMARK   34  A    between atoms: C_64  and  N_90 
REMARK   35  A    between atoms: C_65  and  C_66 
REMARK   36  A    between atoms: C_66  and  C_67 
REMARK   37  A    between atoms: C_66  and  N_80 
REMARK   38  A    between atoms: C_67  and  C_68 
REMARK   39  A    between atoms: C_68  and  C_69 
REMARK   40  A    between atoms: C_68  and  N_95 
REMARK   41  A    between atoms: C_69  and  C_70 
REMARK   42  A    between atoms: C_70  and  N_85 
REMARK   43  A    between atoms: N_102  and  C_108 
REMARK   44  A    between atoms: C_107  and  C_108 
REMARK   45  A    between atoms: C_108  and  C_115 
REMARK   46  A    between atoms: N_111  and  C_117 
REMARK   47  A    between atoms: C_113  and  C_117 
REMARK   48  A    between atoms: C_113  and  C_119 
REMARK   49  A    between atoms: N_114  and  C_124 
REMARK   50  A    between atoms: C_115  and  C_119 
REMARK   51  A    between atoms: C_117  and  C_121 
REMARK   52  A    between atoms: N_118  and  C_119 
REMARK   53  A    between atoms: C_121  and  C_126 
REMARK   54  A    between atoms: C_124  and  C_125 
REMARK   55  A    between atoms: C_125  and  C_126 
REMARK   56  A    between atoms: C_126  and  N_129 
REMARK   57  A    between atoms: C_137  and  O_139 
REMARK   58  A    between atoms: C_142  and  C_144 
REMARK   59  A    between atoms: O_143  and  C_144 
REMARK   60  A    between atoms: C_147  and  C_149 
REMARK   61  A    between atoms: O_148  and  C_149 
ROOT
HETATM    1  C   UNL     1      16.045 -17.193  13.731  1.00  0.00     0.187 C 
HETATM    2  C   UNL     1      15.146 -16.392  14.739  1.00  0.00     0.180 C 
HETATM    3  C   UNL     1      17.549 -16.874  13.909  1.00  0.00     0.183 C 
HETATM    4  C   UNL     1      17.950 -16.896  15.416  1.00  0.00     0.208 C 
HETATM    5  C   UNL     1      17.024 -15.830  16.051  1.00  0.00     0.292 C 
HETATM    6  O   UNL     1      15.692 -16.324  16.068  1.00  0.00    -0.348 OA
ENDROOT
BRANCH   1   7
HETATM    7  O   UNL     1      15.856 -18.585  13.924  1.00  0.00    -0.348 OA
BRANCH   7   8
HETATM    8  C   UNL     1      15.232 -19.238  12.815  1.00  0.00     0.292 C 
HETATM    9  O   UNL     1      14.846 -18.256  11.876  1.00  0.00    -0.348 OA
HETATM   10  C   UNL     1      14.274 -18.799  10.677  1.00  0.00     0.180 C 
HETATM   11  C   UNL     1      13.488 -20.140  10.872  1.00  0.00     0.187 C 
HETATM   12  C   UNL     1      12.874 -20.133  12.270  1.00  0.00     0.183 C 
HETATM   13  C   UNL     1      14.022 -20.090  13.313  1.00  0.00     0.204 C 
BRANCH  10  14
HETATM   14  C   UNL     1      15.325 -18.916   9.567  1.00  0.00     0.203 C 
BRANCH  14  15
HETATM   15  O   UNL     1      16.084 -20.089   9.765  1.00  0.00    -0.379 OA
BRANCH  15  16
HETATM   16  C   UNL     1      16.450 -20.632   8.516  1.00  0.00     0.281 C 
BRANCH  16  17
HETATM   17  C   UNL     1      16.920 -22.037   8.725  1.00  0.00     0.313 C 
HETATM   18  O   UNL     1      17.959 -22.426   8.216  1.00  0.00    -0.260 OA
BRANCH  17  19
HETATM   19  O   UNL     1      16.191 -22.881   9.481  1.00  0.00    -0.148 OA
HETATM   20 Na   UNL     1      16.701 -24.828   9.582  1.00  0.00     0.000 Na
ENDBRANCH  17  19
ENDBRANCH  16  17
ENDBRANCH  15  16
ENDBRANCH  14  15
ENDBRANCH  10  14
BRANCH  11  21
HETATM   21  O   UNL     1      12.444 -20.232   9.914  1.00  0.00    -0.348 OA
BRANCH  21  22
HETATM   22  C   UNL     1      12.349 -21.484   9.260  1.00  0.00     0.292 C 
HETATM   23  O   UNL     1      13.066 -21.382   8.033  1.00  0.00    -0.351 OA
HETATM   24  C   UNL     1      12.837 -22.432   7.086  1.00  0.00     0.151 C 
HETATM   25  C   UNL     1      12.118 -23.663   7.685  1.00  0.00     0.068 C 
HETATM   26  C   UNL     1      10.785 -23.261   8.366  1.00  0.00     0.154 C 
HETATM   27  C   UNL     1      10.852 -21.844   9.018  1.00  0.00     0.205 C 
BRANCH  24  28
HETATM   28  C   UNL     1      14.194 -22.859   6.510  1.00  0.00     0.200 C 
BRANCH  28  29
HETATM   29  O   UNL     1      14.409 -22.195   5.281  1.00  0.00    -0.379 OA
BRANCH  29  30
HETATM   30  C   UNL     1      15.795 -22.069   5.037  1.00  0.00     0.281 C 
BRANCH  30  31
HETATM   31  C   UNL     1      16.109 -20.629   4.766  1.00  0.00     0.313 C 
HETATM   32  O   UNL     1      17.249 -20.289   4.490  1.00  0.00    -0.260 OA
BRANCH  31  33
HETATM   33  O   UNL     1      15.134 -19.702   4.823  1.00  0.00    -0.148 OA
HETATM   34 Na   UNL     1      13.717 -19.793   6.250  1.00  0.00     0.000 Na
ENDBRANCH  31  33
ENDBRANCH  30  31
ENDBRANCH  29  30
ENDBRANCH  28  29
ENDBRANCH  24  28
BRANCH  26  35
HETATM   35  O   UNL     1       9.674 -23.384   7.509  1.00  0.00    -0.393 OA
HETATM   36  H   UNL     1       9.375 -22.472   7.255  1.00  0.00     0.210 HD
ENDBRANCH  26  35
BRANCH  27  37
HETATM   37  O   UNL     1      10.147 -20.858   8.160  1.00  0.00    -0.376 OA
BRANCH  37  38
HETATM   38  C   UNL     1       9.063 -20.088   8.804  1.00  0.00     0.194 C 
BRANCH  38  39
HETATM   39  C   UNL     1       8.167 -20.968   9.727  1.00  0.00     0.116 C 
BRANCH  39  40
HETATM   40  C   UNL     1       6.713 -21.028   9.098  1.00  0.00     0.053 C 
BRANCH  40  41
HETATM   41  C   UNL     1       5.841 -22.332   9.195  1.00  0.00     0.094 C 
BRANCH  41  42
HETATM   42  C   UNL     1       4.311 -21.913   9.288  1.00  0.00     0.051 C 
BRANCH  42  43
HETATM   43  C   UNL     1       3.333 -21.854   8.061  1.00  0.00     0.094 C 
BRANCH  43  44
HETATM   44  C   UNL     1       4.000 -21.140   6.841  1.00  0.00     0.051 C 
BRANCH  44  45
HETATM   45  C   UNL     1       2.979 -20.833   5.717  1.00  0.00     0.094 C 
BRANCH  45  46
HETATM   46  C   UNL     1       1.866 -19.789   6.055  1.00  0.00     0.051 C 
BRANCH  46  47
HETATM   47  C   UNL     1       0.380 -20.061   5.668  1.00  0.00     0.089 C 
HETATM   48  C   UNL     1       0.161 -19.715   4.186  1.00  0.00     0.033 C 
BRANCH  47  49
HETATM   49  N   UNL     1      -0.062 -21.429   5.891  1.00  0.00    -0.334 N 
HETATM   50  C   UNL     1      -0.476 -21.964   7.125  1.00  0.00     0.210 A 
HETATM   51  N   UNL     1      -0.864 -23.175   7.004  1.00  0.00    -0.254 NA
HETATM   52  C   UNL     1      -0.730 -23.504   5.635  1.00  0.00     0.150 A 
HETATM   53  C   UNL     1      -0.258 -22.463   4.954  1.00  0.00     0.082 A 
ENDBRANCH  47  49
ENDBRANCH  46  47
ENDBRANCH  45  46
BRANCH  45  54
HETATM   54  N   UNL     1       3.722 -20.455   4.484  1.00  0.00    -0.339 N 
HETATM   55  C   UNL     1       3.699 -21.132   3.312  1.00  0.00     0.209 A 
HETATM   56  N   UNL     1       4.436 -20.536   2.353  1.00  0.00    -0.254 NA
HETATM   57  C   UNL     1       4.940 -19.438   2.938  1.00  0.00     0.142 A 
HETATM   58  C   UNL     1       4.504 -19.379   4.246  1.00  0.00     0.026 A 
HETATM   59  C   UNL     1       4.866 -18.279   5.195  1.00  0.00     0.070 C 
ENDBRANCH  45  54
ENDBRANCH  44  45
ENDBRANCH  43  44
BRANCH  43  60
HETATM   60  N   UNL     1       2.934 -23.201   7.616  1.00  0.00    -0.345 N 
HETATM   61  C   UNL     1       2.286 -24.135   8.343  1.00  0.00     0.209 A 
HETATM   62  N   UNL     1       2.023 -25.246   7.628  1.00  0.00    -0.255 NA
HETATM   63  C   UNL     1       2.514 -24.992   6.400  1.00  0.00     0.135 A 
HETATM   64  C   UNL     1       3.064 -23.730   6.384  1.00  0.00     0.111 A 
ENDBRANCH  43  60
ENDBRANCH  42  43
ENDBRANCH  41  42
BRANCH  41  65
HETATM   65  N   UNL     1       6.215 -23.401   8.243  1.00  0.00    -0.339 N 
HETATM   66  C   UNL     1       6.596 -23.149   6.908  1.00  0.00     0.209 A 
HETATM   67  N   UNL     1       6.778 -24.333   6.181  1.00  0.00    -0.254 NA
HETATM   68  C   UNL     1       6.372 -25.341   7.066  1.00  0.00     0.142 A 
HETATM   69  C   UNL     1       6.002 -24.828   8.242  1.00  0.00     0.026 A 
HETATM   70  C   UNL     1       5.364 -25.714   9.286  1.00  0.00     0.070 C 
ENDBRANCH  41  65
ENDBRANCH  40  41
ENDBRANCH  39  40
BRANCH  39  71
HETATM   71  N   UNL     1       8.257 -20.592  11.165  1.00  0.00    -0.343 N 
HETATM   72  C   UNL     1       8.609 -19.406  11.719  1.00  0.00     0.111 A 
HETATM   73  C   UNL     1       8.585 -19.533  13.088  1.00  0.00     0.135 A 
HETATM   74  N   UNL     1       8.248 -20.793  13.408  1.00  0.00    -0.255 NA
HETATM   75  C   UNL     1       8.070 -21.411  12.225  1.00  0.00     0.209 A 
ENDBRANCH  39  71
ENDBRANCH  38  39
ENDBRANCH  37  38
ENDBRANCH  27  37
ENDBRANCH  21  22
ENDBRANCH  11  21
BRANCH  12  76
HETATM   76  O   UNL     1      11.961 -19.064  12.401  1.00  0.00    -0.390 OA
HETATM   77  H   UNL     1      11.822 -18.634  11.519  1.00  0.00     0.210 HD
ENDBRANCH  12  76
BRANCH  13  78
HETATM   78  O   UNL     1      13.510 -19.663  14.608  1.00  0.00    -0.388 OA
HETATM   79  H   UNL     1      14.017 -18.896  14.919  1.00  0.00     0.210 HD
ENDBRANCH  13  78
ENDBRANCH   7   8
ENDBRANCH   1   7
BRANCH   2  80
HETATM   80  C   UNL     1      14.734 -14.998  14.200  1.00  0.00     0.203 C 
BRANCH  80  81
HETATM   81  O   UNL     1      13.397 -14.702  14.559  1.00  0.00    -0.379 OA
BRANCH  81  82
HETATM   82  C   UNL     1      13.276 -13.391  15.067  1.00  0.00     0.281 C 
BRANCH  82  83
HETATM   83  C   UNL     1      12.714 -13.469  16.453  1.00  0.00     0.313 C 
HETATM   84  O   UNL     1      12.035 -12.552  16.886  1.00  0.00    -0.260 OA
BRANCH  83  85
HETATM   85  O   UNL     1      12.952 -14.544  17.230  1.00  0.00    -0.148 OA
HETATM   86 Na   UNL     1      13.932 -14.387  18.983  1.00  0.00     0.000 Na
ENDBRANCH  83  85
ENDBRANCH  82  83
ENDBRANCH  81  82
ENDBRANCH  80  81
ENDBRANCH   2  80
BRANCH   3  87
HETATM   87  O   UNL     1      18.328 -17.763  13.150  1.00  0.00    -0.390 OA
HETATM   88  H   UNL     1      17.878 -17.862  12.272  1.00  0.00     0.210 HD
ENDBRANCH   3  87
BRANCH   4  89
HETATM   89  O   UNL     1      17.797 -18.269  15.987  1.00  0.00    -0.376 OA
BRANCH  89  90
HETATM   90  C   UNL     1      18.956 -18.790  16.744  1.00  0.00     0.194 C 
BRANCH  90  91
HETATM   91  C   UNL     1      19.651 -20.058  16.097  1.00  0.00     0.116 C 
BRANCH  91  92
HETATM   92  N   UNL     1      21.125 -20.030  16.268  1.00  0.00    -0.343 N 
HETATM   93  C   UNL     1      21.888 -19.036  16.777  1.00  0.00     0.111 A 
HETATM   94  C   UNL     1      23.206 -19.423  16.728  1.00  0.00     0.135 A 
HETATM   95  N   UNL     1      23.286 -20.647  16.177  1.00  0.00    -0.255 NA
HETATM   96  C   UNL     1      22.010 -20.987  15.902  1.00  0.00     0.209 A 
ENDBRANCH  91  92
BRANCH  91  97
HETATM   97  C   UNL     1      18.938 -21.395  16.550  1.00  0.00     0.053 C 
BRANCH  97  98
HETATM   98  C   UNL     1      17.728 -22.036  15.753  1.00  0.00     0.094 C 
BRANCH  98  99
HETATM   99  C   UNL     1      16.342 -21.298  15.890  1.00  0.00     0.051 C 
BRANCH  99 100
HETATM  100  C   UNL     1      15.332 -21.870  16.939  1.00  0.00     0.094 C 
BRANCH 100 101
HETATM  101  N   UNL     1      15.639 -21.408  18.306  1.00  0.00    -0.345 N 
HETATM  102  C   UNL     1      15.531 -22.126  19.441  1.00  0.00     0.111 A 
HETATM  103  C   UNL     1      15.879 -21.315  20.497  1.00  0.00     0.135 A 
HETATM  104  N   UNL     1      16.191 -20.090  20.031  1.00  0.00    -0.255 NA
HETATM  105  C   UNL     1      16.030 -20.178  18.695  1.00  0.00     0.209 A 
ENDBRANCH 100 101
BRANCH 100 106
HETATM  106  C   UNL     1      15.259 -23.436  16.954  1.00  0.00     0.051 C 
BRANCH 106 107
HETATM  107  C   UNL     1      13.811 -23.932  16.685  1.00  0.00     0.094 C 
BRANCH 107 108
HETATM  108  C   UNL     1      13.556 -24.648  15.317  1.00  0.00     0.051 C 
BRANCH 108 109
HETATM  109  C   UNL     1      13.244 -23.812  14.038  1.00  0.00     0.089 C 
HETATM  110  C   UNL     1      14.498 -23.749  13.149  1.00  0.00     0.033 C 
BRANCH 109 111
HETATM  111  N   UNL     1      12.131 -24.287  13.233  1.00  0.00    -0.334 N 
HETATM  112  C   UNL     1      11.634 -25.595  13.078  1.00  0.00     0.082 A 
HETATM  113  C   UNL     1      10.608 -25.507  12.235  1.00  0.00     0.150 A 
HETATM  114  N   UNL     1      10.420 -24.168  11.822  1.00  0.00    -0.254 NA
HETATM  115  C   UNL     1      11.319 -23.481  12.412  1.00  0.00     0.210 A 
ENDBRANCH 109 111
ENDBRANCH 108 109
ENDBRANCH 107 108
BRANCH 107 116
HETATM  116  N   UNL     1      13.291 -24.702  17.814  1.00  0.00    -0.339 N 
HETATM  117  C   UNL     1      13.646 -26.022  18.159  1.00  0.00     0.209 A 
HETATM  118  N   UNL     1      12.992 -26.413  19.341  1.00  0.00    -0.254 NA
HETATM  119  C   UNL     1      12.232 -25.282  19.712  1.00  0.00     0.142 A 
HETATM  120  C   UNL     1      12.401 -24.287  18.840  1.00  0.00     0.026 A 
HETATM  121  C   UNL     1      11.731 -22.949  18.971  1.00  0.00     0.070 C 
ENDBRANCH 107 116
ENDBRANCH 106 107
ENDBRANCH 100 106
ENDBRANCH  99 100
ENDBRANCH  98  99
BRANCH  98 122
HETATM  122  N   UNL     1      17.999 -22.680  14.449  1.00  0.00    -0.339 N 
HETATM  123  C   UNL     1      18.123 -24.027  13.982  1.00  0.00     0.026 A 
HETATM  124  C   UNL     1      18.298 -24.049  12.660  1.00  0.00     0.142 A 
HETATM  125  C   UNL     1      18.029 -25.297  14.742  1.00  0.00     0.070 C 
HETATM  126  N   UNL     1      18.242 -22.754  12.123  1.00  0.00    -0.254 NA
HETATM  127  C   UNL     1      18.002 -21.939  13.239  1.00  0.00     0.209 A 
ENDBRANCH  98 122
ENDBRANCH  97  98
ENDBRANCH  91  97
ENDBRANCH  90  91
ENDBRANCH  89  90
ENDBRANCH   4  89
BRANCH   5 128
HETATM  128  O   UNL     1      17.463 -15.403  17.352  1.00  0.00    -0.348 OA
BRANCH 128 129
HETATM  129  C   UNL     1      16.625 -14.345  17.864  1.00  0.00     0.187 C 
HETATM  130  C   UNL     1      17.076 -13.831  19.261  1.00  0.00     0.180 C 
HETATM  131  O   UNL     1      16.080 -12.971  19.808  1.00  0.00    -0.348 OA
HETATM  132  C   UNL     1      17.298 -14.988  20.244  1.00  0.00     0.203 C 
HETATM  133  C   UNL     1      15.840 -11.814  19.015  1.00  0.00     0.292 C 
HETATM  134  O   UNL     1      16.896 -10.869  19.196  1.00  0.00    -0.348 OA
HETATM  135  C   UNL     1      15.549 -12.151  17.524  1.00  0.00     0.204 C 
HETATM  136  C   UNL     1      16.477  -9.732  19.961  1.00  0.00     0.187 C 
HETATM  137  C   UNL     1      17.541  -9.348  21.049  1.00  0.00     0.176 C 
HETATM  138  C   UNL     1      16.256  -8.507  19.057  1.00  0.00     0.180 C 
HETATM  139  O   UNL     1      17.417  -8.008  21.554  1.00  0.00    -0.378 OA
HETATM  140  C   UNL     1      17.540 -10.365  22.212  1.00  0.00     0.203 C 
HETATM  141  C   UNL     1      16.111  -7.491  21.416  1.00  0.00     0.202 C 
HETATM  142  C   UNL     1      15.721  -7.323  19.924  1.00  0.00     0.173 C 
HETATM  143  O   UNL     1      18.357  -9.986  23.306  1.00  0.00    -0.379 OA
HETATM  144  C   UNL     1      19.707  -9.811  22.936  1.00  0.00     0.280 C 
HETATM  145  C   UNL     1      20.567  -9.972  24.151  1.00  0.00     0.308 C 
HETATM  146  O   UNL     1      20.374  -9.273  25.133  1.00  0.00    -0.261 OA
HETATM  147  O   UNL     1      21.566 -10.874  24.164  1.00  0.00    -0.158 OA
HETATM  148 Na   UNL     1      22.006 -11.931  22.506  1.00  0.00    -0.020 Na
HETATM  149 Na   UNL     1      22.267 -14.503  21.846  1.00  0.00     0.080 Na
HETATM  150  O   UNL     1      20.895 -14.173  23.288  1.00  0.00    -0.180 OA
HETATM  151  C   UNL     1      19.581 -14.207  22.995  1.00  0.00     0.302 C 
HETATM  152  C   UNL     1      19.143 -14.511  21.594  1.00  0.00     0.280 C 
HETATM  153  O   UNL     1      18.763 -13.998  23.877  1.00  0.00    -0.261 OA
HETATM  154  O   UNL     1      17.728 -14.510  21.507  1.00  0.00    -0.379 OA
HETATM  155  C   UNL     1      16.573 -13.136  16.917  1.00  0.00     0.183 C 
BRANCH 142 156
HETATM  156  O   UNL     1      16.135  -6.026  19.379  1.00  0.00    -0.391 OA
HETATM  157  H   UNL     1      17.082  -6.050  19.171  1.00  0.00     0.210 HD
ENDBRANCH 142 156
BRANCH 138 158
HETATM  158  O   UNL     1      17.442  -8.194  18.359  1.00  0.00    -0.390 OA
HETATM  159  H   UNL     1      17.337  -8.434  17.404  1.00  0.00     0.210 HD
ENDBRANCH 138 158
BRANCH 135 160
HETATM  160  O   UNL     1      15.396 -10.938  16.721  1.00  0.00    -0.388 OA
HETATM  161  H   UNL     1      14.898 -10.276  17.227  1.00  0.00     0.210 HD
ENDBRANCH 135 160
BRANCH 155 162
HETATM  162  O   UNL     1      17.834 -12.529  16.794  1.00  0.00    -0.390 OA
HETATM  163  H   UNL     1      18.224 -12.855  15.943  1.00  0.00     0.210 HD
ENDBRANCH 155 162
ENDBRANCH 128 129
ENDBRANCH   5 128
TORSDOF 61
ENDMDL
MODEL 2
REMARK VINA RESULT:      -6.8      4.341      9.385
REMARK WARNING: 32 MAX_TORS EXCEEDED!!!
REMARK  61 active torsions:
REMARK  status: ('A' for Active; 'I' for Inactive)
REMARK    1  A    between atoms: C_1  and  O_30 
REMARK    2  A    between atoms: C_2  and  C_6 
REMARK    3  A    between atoms: C_3  and  O_9 
REMARK    4  A    between atoms: C_4  and  O_11 
REMARK    5  A    between atoms: C_5  and  O_12 
REMARK    6  A    between atoms: C_6  and  O_7 
REMARK    7  A    between atoms: O_7  and  C_147 
REMARK    8  A    between atoms: O_11  and  C_107 
REMARK    9  A    between atoms: O_12  and  C_20 
REMARK   10  A    between atoms: O_14  and  C_18 
REMARK   11  A    between atoms: O_21  and  C_24 
REMARK   12  A    between atoms: O_26  and  C_29 
REMARK   13  A    between atoms: C_28  and  C_34 
REMARK   14  A    between atoms: O_30  and  C_33 
REMARK   15  A    between atoms: C_31  and  O_53 
REMARK   16  A    between atoms: O_32  and  C_35 
REMARK   17  A    between atoms: C_34  and  O_59 
REMARK   18  A    between atoms: O_37  and  C_41 
REMARK   19  A    between atoms: O_43  and  C_46 
REMARK   20  A    between atoms: O_48  and  C_52 
REMARK   21  A    between atoms: C_50  and  C_57 
REMARK   22  A    between atoms: O_51  and  C_57 
REMARK   23  A    between atoms: O_51  and  C_60 
REMARK   24  A    between atoms: O_53  and  C_56 
REMARK   25  A    between atoms: O_55  and  C_58 
REMARK   26  A    between atoms: O_55  and  C_61 
REMARK   27  A    between atoms: O_59  and  C_142 
REMARK   28  A    between atoms: C_60  and  C_137 
REMARK   29  A    between atoms: C_61  and  C_62 
REMARK   30  A    between atoms: C_62  and  C_63 
REMARK   31  A    between atoms: C_62  and  N_76 
REMARK   32  A    between atoms: C_63  and  C_64 
REMARK   33  A    between atoms: C_64  and  C_65 
REMARK   34  A    between atoms: C_64  and  N_90 
REMARK   35  A    between atoms: C_65  and  C_66 
REMARK   36  A    between atoms: C_66  and  C_67 
REMARK   37  A    between atoms: C_66  and  N_80 
REMARK   38  A    between atoms: C_67  and  C_68 
REMARK   39  A    between atoms: C_68  and  C_69 
REMARK   40  A    between atoms: C_68  and  N_95 
REMARK   41  A    between atoms: C_69  and  C_70 
REMARK   42  A    between atoms: C_70  and  N_85 
REMARK   43  A    between atoms: N_102  and  C_108 
REMARK   44  A    between atoms: C_107  and  C_108 
REMARK   45  A    between atoms: C_108  and  C_115 
REMARK   46  A    between atoms: N_111  and  C_117 
REMARK   47  A    between atoms: C_113  and  C_117 
REMARK   48  A    between atoms: C_113  and  C_119 
REMARK   49  A    between atoms: N_114  and  C_124 
REMARK   50  A    between atoms: C_115  and  C_119 
REMARK   51  A    between atoms: C_117  and  C_121 
REMARK   52  A    between atoms: N_118  and  C_119 
REMARK   53  A    between atoms: C_121  and  C_126 
REMARK   54  A    between atoms: C_124  and  C_125 
REMARK   55  A    between atoms: C_125  and  C_126 
REMARK   56  A    between atoms: C_126  and  N_129 
REMARK   57  A    between atoms: C_137  and  O_139 
REMARK   58  A    between atoms: C_142  and  C_144 
REMARK   59  A    between atoms: O_143  and  C_144 
REMARK   60  A    between atoms: C_147  and  C_149 
REMARK   61  A    between atoms: O_148  and  C_149 
ROOT
HETATM    1  C   UNL     1      15.584 -16.613  13.977  1.00  0.00     0.187 C 
HETATM    2  C   UNL     1      14.399 -16.130  14.889  1.00  0.00     0.180 C 
HETATM    3  C   UNL     1      16.949 -16.059  14.451  1.00  0.00     0.183 C 
HETATM    4  C   UNL     1      17.110 -16.215  15.994  1.00  0.00     0.208 C 
HETATM    5  C   UNL     1      15.905 -15.428  16.564  1.00  0.00     0.292 C 
HETATM    6  O   UNL     1      14.711 -16.148  16.293  1.00  0.00    -0.348 OA
ENDROOT
BRANCH   1   7
HETATM    7  O   UNL     1      15.646 -18.029  13.986  1.00  0.00    -0.348 OA
BRANCH   7   8
HETATM    8  C   UNL     1      14.664 -18.652  13.155  1.00  0.00     0.292 C 
HETATM    9  O   UNL     1      14.603 -20.024  13.485  1.00  0.00    -0.348 OA
HETATM   10  C   UNL     1      13.592 -20.745  12.765  1.00  0.00     0.180 C 
HETATM   11  C   UNL     1      13.299 -20.207  11.325  1.00  0.00     0.187 C 
HETATM   12  C   UNL     1      14.592 -19.620  10.764  1.00  0.00     0.183 C 
HETATM   13  C   UNL     1      15.014 -18.419  11.651  1.00  0.00     0.204 C 
BRANCH  10  14
HETATM   14  C   UNL     1      12.307 -20.870  13.595  1.00  0.00     0.203 C 
BRANCH  14  15
HETATM   15  O   UNL     1      11.332 -19.992  13.076  1.00  0.00    -0.379 OA
BRANCH  15  16
HETATM   16  C   UNL     1      10.056 -20.582  13.192  1.00  0.00     0.281 C 
BRANCH  16  17
HETATM   17  C   UNL     1       9.020 -19.541  12.904  1.00  0.00     0.313 C 
HETATM   18  O   UNL     1       9.295 -18.565  12.225  1.00  0.00    -0.260 OA
BRANCH  17  19
HETATM   19  O   UNL     1       7.775 -19.681  13.398  1.00  0.00    -0.148 OA
HETATM   20 Na   UNL     1       6.668 -21.285  12.881  1.00  0.00     0.000 Na
ENDBRANCH  17  19
ENDBRANCH  16  17
ENDBRANCH  15  16
ENDBRANCH  14  15
ENDBRANCH  10  14
BRANCH  11  21
HETATM   21  O   UNL     1      12.881 -21.273  10.486  1.00  0.00    -0.348 OA
BRANCH  21  22
HETATM   22  C   UNL     1      11.715 -21.008   9.727  1.00  0.00     0.292 C 
HETATM   23  O   UNL     1      10.688 -21.874  10.201  1.00  0.00    -0.351 OA
HETATM   24  C   UNL     1       9.527 -21.981   9.368  1.00  0.00     0.151 C 
HETATM   25  C   UNL     1       9.443 -20.889   8.277  1.00  0.00     0.068 C 
HETATM   26  C   UNL     1      10.723 -20.864   7.404  1.00  0.00     0.154 C 
HETATM   27  C   UNL     1      12.004 -21.239   8.213  1.00  0.00     0.205 C 
BRANCH  24  28
HETATM   28  C   UNL     1       8.287 -21.907  10.269  1.00  0.00     0.200 C 
BRANCH  28  29
HETATM   29  O   UNL     1       7.191 -21.430   9.515  1.00  0.00    -0.379 OA
BRANCH  29  30
HETATM   30  C   UNL     1       6.013 -22.116   9.891  1.00  0.00     0.281 C 
BRANCH  30  31
HETATM   31  C   UNL     1       4.933 -21.798   8.902  1.00  0.00     0.313 C 
HETATM   32  O   UNL     1       4.024 -22.590   8.707  1.00  0.00    -0.260 OA
BRANCH  31  33
HETATM   33  O   UNL     1       4.958 -20.635   8.223  1.00  0.00    -0.148 OA
HETATM   34 Na   UNL     1       6.656 -19.561   8.094  1.00  0.00     0.000 Na
ENDBRANCH  31  33
ENDBRANCH  30  31
ENDBRANCH  29  30
ENDBRANCH  28  29
ENDBRANCH  24  28
BRANCH  26  35
HETATM   35  O   UNL     1      10.602 -21.641   6.235  1.00  0.00    -0.393 OA
HETATM   36  H   UNL     1      11.220 -21.272   5.551  1.00  0.00     0.210 HD
ENDBRANCH  26  35
BRANCH  27  37
HETATM   37  O   UNL     1      12.407 -22.634   7.903  1.00  0.00    -0.376 OA
BRANCH  37  38
HETATM   38  C   UNL     1      13.563 -22.795   6.997  1.00  0.00     0.194 C 
BRANCH  38  39
HETATM   39  C   UNL     1      14.742 -21.839   7.351  1.00  0.00     0.116 C 
BRANCH  39  40
HETATM   40  C   UNL     1      14.943 -20.830   6.145  1.00  0.00     0.053 C 
BRANCH  40  41
HETATM   41  C   UNL     1      15.602 -21.296   4.797  1.00  0.00     0.094 C 
BRANCH  41  42
HETATM   42  C   UNL     1      17.059 -20.668   4.700  1.00  0.00     0.051 C 
BRANCH  42  43
HETATM   43  C   UNL     1      17.818 -20.400   3.353  1.00  0.00     0.094 C 
BRANCH  43  44
HETATM   44  C   UNL     1      18.842 -21.539   3.043  1.00  0.00     0.051 C 
BRANCH  44  45
HETATM   45  C   UNL     1      20.299 -21.016   2.998  1.00  0.00     0.094 C 
BRANCH  45  46
HETATM   46  C   UNL     1      20.479 -19.469   2.858  1.00  0.00     0.051 C 
BRANCH  46  47
HETATM   47  C   UNL     1      21.209 -18.865   1.619  1.00  0.00     0.089 C 
HETATM   48  C   UNL     1      21.661 -19.998   0.684  1.00  0.00     0.033 C 
BRANCH  47  49
HETATM   49  N   UNL     1      20.412 -17.923   0.849  1.00  0.00    -0.334 N 
HETATM   50  C   UNL     1      19.232 -17.296   1.290  1.00  0.00     0.210 A 
HETATM   51  N   UNL     1      18.784 -16.475   0.420  1.00  0.00    -0.254 NA
HETATM   52  C   UNL     1      19.686 -16.513  -0.669  1.00  0.00     0.150 A 
HETATM   53  C   UNL     1      20.672 -17.370  -0.421  1.00  0.00     0.082 A 
ENDBRANCH  47  49
ENDBRANCH  46  47
ENDBRANCH  45  46
BRANCH  45  54
HETATM   54  N   UNL     1      21.036 -21.543   4.178  1.00  0.00    -0.339 N 
HETATM   55  C   UNL     1      20.474 -21.946   5.342  1.00  0.00     0.209 A 
HETATM   56  N   UNL     1      21.381 -22.415   6.223  1.00  0.00    -0.254 NA
HETATM   57  C   UNL     1      22.561 -22.310   5.591  1.00  0.00     0.142 A 
HETATM   58  C   UNL     1      22.358 -21.778   4.333  1.00  0.00     0.026 A 
HETATM   59  C   UNL     1      23.457 -21.531   3.348  1.00  0.00     0.070 C 
ENDBRANCH  45  54
ENDBRANCH  44  45
ENDBRANCH  43  44
BRANCH  43  60
HETATM   60  N   UNL     1      16.890 -20.322   2.210  1.00  0.00    -0.345 N 
HETATM   61  C   UNL     1      16.173 -19.248   1.820  1.00  0.00     0.209 A 
HETATM   62  N   UNL     1      15.457 -19.490   0.705  1.00  0.00    -0.255 NA
HETATM   63  C   UNL     1      15.749 -20.763   0.375  1.00  0.00     0.135 A 
HETATM   64  C   UNL     1      16.640 -21.275   1.291  1.00  0.00     0.111 A 
ENDBRANCH  43  60
ENDBRANCH  42  43
ENDBRANCH  41  42
BRANCH  41  65
HETATM   65  N   UNL     1      15.441 -22.735   4.493  1.00  0.00    -0.339 N 
HETATM   66  C   UNL     1      16.469 -23.683   4.672  1.00  0.00     0.209 A 
HETATM   67  N   UNL     1      16.106 -24.950   4.193  1.00  0.00    -0.254 NA
HETATM   68  C   UNL     1      14.860 -24.739   3.586  1.00  0.00     0.142 A 
HETATM   69  C   UNL     1      14.476 -23.466   3.705  1.00  0.00     0.026 A 
HETATM   70  C   UNL     1      13.249 -22.975   2.975  1.00  0.00     0.070 C 
ENDBRANCH  41  65
ENDBRANCH  40  41
ENDBRANCH  39  40
BRANCH  39  71
HETATM   71  N   UNL     1      15.955 -22.555   7.832  1.00  0.00    -0.343 N 
HETATM   72  C   UNL     1      16.075 -23.825   8.289  1.00  0.00     0.111 A 
HETATM   73  C   UNL     1      17.382 -24.043   8.656  1.00  0.00     0.135 A 
HETATM   74  N   UNL     1      18.087 -22.917   8.461  1.00  0.00    -0.255 NA
HETATM   75  C   UNL     1      17.195 -22.033   7.976  1.00  0.00     0.209 A 
ENDBRANCH  39  71
ENDBRANCH  38  39
ENDBRANCH  37  38
ENDBRANCH  27  37
ENDBRANCH  21  22
ENDBRANCH  11  21
BRANCH  12  76
HETATM   76  O   UNL     1      15.586 -20.619  10.669  1.00  0.00    -0.390 OA
HETATM   77  H   UNL     1      15.205 -21.494  10.934  1.00  0.00     0.210 HD
ENDBRANCH  12  76
BRANCH  13  78
HETATM   78  O   UNL     1      16.418 -18.097  11.430  1.00  0.00    -0.388 OA
HETATM   79  H   UNL     1      16.493 -17.457  10.705  1.00  0.00     0.210 HD
ENDBRANCH  13  78
ENDBRANCH   7   8
ENDBRANCH   1   7
BRANCH   2  80
HETATM   80  C   UNL     1      13.808 -14.770  14.435  1.00  0.00     0.203 C 
BRANCH  80  81
HETATM   81  O   UNL     1      12.719 -14.402  15.261  1.00  0.00    -0.379 OA
BRANCH  81  82
HETATM   82  C   UNL     1      12.985 -13.209  15.966  1.00  0.00     0.281 C 
BRANCH  82  83
HETATM   83  C   UNL     1      12.814 -13.475  17.430  1.00  0.00     0.313 C 
HETATM   84  O   UNL     1      13.190 -12.650  18.247  1.00  0.00    -0.260 OA
BRANCH  83  85
HETATM   85  O   UNL     1      12.248 -14.621  17.858  1.00  0.00    -0.148 OA
HETATM   86 Na   UNL     1      10.376 -14.666  18.599  1.00  0.00     0.000 Na
ENDBRANCH  83  85
ENDBRANCH  82  83
ENDBRANCH  81  82
ENDBRANCH  80  81
ENDBRANCH   2  80
BRANCH   3  87
HETATM   87  O   UNL     1      17.996 -16.684  13.753  1.00  0.00    -0.390 OA
HETATM   88  H   UNL     1      18.069 -17.606  14.111  1.00  0.00     0.210 HD
ENDBRANCH   3  87
BRANCH   4  89
HETATM   89  O   UNL     1      17.146 -17.659  16.382  1.00  0.00    -0.376 OA
BRANCH  89  90
HETATM   90  C   UNL     1      18.447 -18.169  16.867  1.00  0.00     0.194 C 
BRANCH  90  91
HETATM   91  C   UNL     1      18.398 -19.633  17.469  1.00  0.00     0.116 C 
BRANCH  91  92
HETATM   92  N   UNL     1      18.561 -19.632  18.945  1.00  0.00    -0.343 N 
HETATM   93  C   UNL     1      19.382 -20.400  19.695  1.00  0.00     0.111 A 
HETATM   94  C   UNL     1      19.194 -20.084  21.019  1.00  0.00     0.135 A 
HETATM   95  N   UNL     1      18.249 -19.133  21.115  1.00  0.00    -0.255 NA
HETATM   96  C   UNL     1      17.878 -18.883  19.843  1.00  0.00     0.209 A 
ENDBRANCH  91  92
BRANCH  91  97
HETATM   97  C   UNL     1      17.149 -20.435  16.923  1.00  0.00     0.053 C 
BRANCH  97  98
HETATM   98  C   UNL     1      16.407 -21.551  17.769  1.00  0.00     0.094 C 
BRANCH  98  99
HETATM   99  C   UNL     1      15.138 -21.078  18.575  1.00  0.00     0.051 C 
BRANCH  99 100
HETATM  100  C   UNL     1      14.734 -21.927  19.826  1.00  0.00     0.094 C 
BRANCH 100 101
HETATM  101  N   UNL     1      13.536 -22.748  19.568  1.00  0.00    -0.345 N 
HETATM  102  C   UNL     1      12.392 -22.344  18.980  1.00  0.00     0.111 A 
HETATM  103  C   UNL     1      11.517 -23.405  18.967  1.00  0.00     0.135 A 
HETATM  104  N   UNL     1      12.100 -24.467  19.556  1.00  0.00    -0.255 NA
HETATM  105  C   UNL     1      13.325 -24.034  19.916  1.00  0.00     0.209 A 
ENDBRANCH 100 101
BRANCH 100 106
HETATM  106  C   UNL     1      14.472 -21.068  21.111  1.00  0.00     0.051 C 
BRANCH 106 107
HETATM  107  C   UNL     1      15.581 -21.301  22.175  1.00  0.00     0.094 C 
BRANCH 107 108
HETATM  108  C   UNL     1      15.633 -20.291  23.370  1.00  0.00     0.051 C 
BRANCH 108 109
HETATM  109  C   UNL     1      14.405 -19.384  23.687  1.00  0.00     0.089 C 
HETATM  110  C   UNL     1      13.943 -19.634  25.133  1.00  0.00     0.033 C 
BRANCH 109 111
HETATM  111  N   UNL     1      14.616 -17.957  23.510  1.00  0.00    -0.334 N 
HETATM  112  C   UNL     1      14.355 -16.898  24.400  1.00  0.00     0.082 A 
HETATM  113  C   UNL     1      14.719 -15.782  23.770  1.00  0.00     0.150 A 
HETATM  114  N   UNL     1      15.208 -16.082  22.478  1.00  0.00    -0.254 NA
HETATM  115  C   UNL     1      15.134 -17.349  22.350  1.00  0.00     0.210 A 
ENDBRANCH 109 111
ENDBRANCH 108 109
ENDBRANCH 107 108
BRANCH 107 116
HETATM  116  N   UNL     1      15.603 -22.691  22.629  1.00  0.00    -0.339 N 
HETATM  117  C   UNL     1      14.591 -23.347  23.359  1.00  0.00     0.209 A 
HETATM  118  N   UNL     1      14.930 -24.696  23.564  1.00  0.00    -0.254 NA
HETATM  119  C   UNL     1      16.180 -24.845  22.924  1.00  0.00     0.142 A 
HETATM  120  C   UNL     1      16.575 -23.694  22.377  1.00  0.00     0.026 A 
HETATM  121  C   UNL     1      17.862 -23.538  21.617  1.00  0.00     0.070 C 
ENDBRANCH 107 116
ENDBRANCH 106 107
ENDBRANCH 100 106
ENDBRANCH  99 100
ENDBRANCH  98  99
BRANCH  98 122
HETATM  122  N   UNL     1      16.367 -22.932  17.239  1.00  0.00    -0.339 N 
HETATM  123  C   UNL     1      15.463 -23.687  16.426  1.00  0.00     0.026 A 
HETATM  124  C   UNL     1      15.961 -24.899  16.177  1.00  0.00     0.142 A 
HETATM  125  C   UNL     1      14.167 -23.278  15.833  1.00  0.00     0.070 C 
HETATM  126  N   UNL     1      17.242 -25.042  16.730  1.00  0.00    -0.254 NA
HETATM  127  C   UNL     1      17.488 -23.797  17.330  1.00  0.00     0.209 A 
ENDBRANCH  98 122
ENDBRANCH  97  98
ENDBRANCH  91  97
ENDBRANCH  90  91
ENDBRANCH  89  90
ENDBRANCH   4  89
BRANCH   5 128
HETATM  128  O   UNL     1      16.046 -15.112  17.960  1.00  0.00    -0.348 OA
BRANCH 128 129
HETATM  129  C   UNL     1      17.385 -14.662  18.259  1.00  0.00     0.187 C 
HETATM  130  C   UNL     1      17.463 -13.139  18.566  1.00  0.00     0.180 C 
HETATM  131  O   UNL     1      18.824 -12.721  18.612  1.00  0.00    -0.348 OA
HETATM  132  C   UNL     1      16.745 -12.310  17.492  1.00  0.00     0.203 C 
HETATM  133  C   UNL     1      19.577 -13.373  19.628  1.00  0.00     0.292 C 
HETATM  134  O   UNL     1      19.261 -12.816  20.904  1.00  0.00    -0.348 OA
HETATM  135  C   UNL     1      19.456 -14.923  19.573  1.00  0.00     0.204 C 
HETATM  136  C   UNL     1      20.328 -12.014  21.424  1.00  0.00     0.187 C 
HETATM  137  C   UNL     1      19.795 -10.664  22.021  1.00  0.00     0.176 C 
HETATM  138  C   UNL     1      21.092 -12.758  22.533  1.00  0.00     0.180 C 
HETATM  139  O   UNL     1      20.705 -10.013  22.924  1.00  0.00    -0.378 OA
HETATM  140  C   UNL     1      19.360  -9.693  20.901  1.00  0.00     0.203 C 
HETATM  141  C   UNL     1      22.050 -10.375  22.699  1.00  0.00     0.202 C 
HETATM  142  C   UNL     1      22.293 -11.877  23.005  1.00  0.00     0.173 C 
HETATM  143  O   UNL     1      19.028  -8.395  21.364  1.00  0.00    -0.379 OA
HETATM  144  C   UNL     1      17.975  -8.411  22.303  1.00  0.00     0.280 C 
HETATM  145  C   UNL     1      17.319  -7.065  22.317  1.00  0.00     0.308 C 
HETATM  146  O   UNL     1      17.981  -6.064  22.542  1.00  0.00    -0.261 OA
HETATM  147  O   UNL     1      15.996  -6.950  22.099  1.00  0.00    -0.158 OA
HETATM  148 Na   UNL     1      14.853  -8.594  21.879  1.00  0.00    -0.020 Na
HETATM  149 Na   UNL     1      13.123  -9.540  20.081  1.00  0.00     0.080 Na
HETATM  150  O   UNL     1      14.599  -8.426  19.275  1.00  0.00    -0.180 OA
HETATM  151  C   UNL     1      15.625  -9.019  18.635  1.00  0.00     0.302 C 
HETATM  152  C   UNL     1      15.653 -10.512  18.508  1.00  0.00     0.280 C 
HETATM  153  O   UNL     1      16.515  -8.331  18.159  1.00  0.00    -0.261 OA
HETATM  154  O   UNL     1      16.805 -10.925  17.792  1.00  0.00    -0.379 OA
HETATM  155  C   UNL     1      17.996 -15.410  19.454  1.00  0.00     0.183 C 
BRANCH 142 156
HETATM  156  O   UNL     1      22.616 -12.117  24.414  1.00  0.00    -0.391 OA
HETATM  157  H   UNL     1      21.810 -12.363  24.894  1.00  0.00     0.210 HD
ENDBRANCH 142 156
BRANCH 138 158
HETATM  158  O   UNL     1      20.213 -13.106  23.581  1.00  0.00    -0.390 OA
HETATM  159  H   UNL     1      19.574 -12.366  23.736  1.00  0.00     0.210 HD
ENDBRANCH 138 158
BRANCH 135 160
HETATM  160  O   UNL     1      20.169 -15.555  20.683  1.00  0.00    -0.388 OA
HETATM  161  H   UNL     1      19.892 -16.482  20.758  1.00  0.00     0.210 HD
ENDBRANCH 135 160
BRANCH 155 162
HETATM  162  O   UNL     1      17.286 -15.146  20.637  1.00  0.00    -0.390 OA
HETATM  163  H   UNL     1      17.815 -14.477  21.143  1.00  0.00     0.210 HD
ENDBRANCH 155 162
ENDBRANCH 128 129
ENDBRANCH   5 128
TORSDOF 61
ENDMDL
MODEL 3
REMARK VINA RESULT:      -6.7      1.846      4.092
REMARK WARNING: 32 MAX_TORS EXCEEDED!!!
REMARK  61 active torsions:
REMARK  status: ('A' for Active; 'I' for Inactive)
REMARK    1  A    between atoms: C_1  and  O_30 
REMARK    2  A    between atoms: C_2  and  C_6 
REMARK    3  A    between atoms: C_3  and  O_9 
REMARK    4  A    between atoms: C_4  and  O_11 
REMARK    5  A    between atoms: C_5  and  O_12 
REMARK    6  A    between atoms: C_6  and  O_7 
REMARK    7  A    between atoms: O_7  and  C_147 
REMARK    8  A    between atoms: O_11  and  C_107 
REMARK    9  A    between atoms: O_12  and  C_20 
REMARK   10  A    between atoms: O_14  and  C_18 
REMARK   11  A    between atoms: O_21  and  C_24 
REMARK   12  A    between atoms: O_26  and  C_29 
REMARK   13  A    between atoms: C_28  and  C_34 
REMARK   14  A    between atoms: O_30  and  C_33 
REMARK   15  A    between atoms: C_31  and  O_53 
REMARK   16  A    between atoms: O_32  and  C_35 
REMARK   17  A    between atoms: C_34  and  O_59 
REMARK   18  A    between atoms: O_37  and  C_41 
REMARK   19  A    between atoms: O_43  and  C_46 
REMARK   20  A    between atoms: O_48  and  C_52 
REMARK   21  A    between atoms: C_50  and  C_57 
REMARK   22  A    between atoms: O_51  and  C_57 
REMARK   23  A    between atoms: O_51  and  C_60 
REMARK   24  A    between atoms: O_53  and  C_56 
REMARK   25  A    between atoms: O_55  and  C_58 
REMARK   26  A    between atoms: O_55  and  C_61 
REMARK   27  A    between atoms: O_59  and  C_142 
REMARK   28  A    between atoms: C_60  and  C_137 
REMARK   29  A    between atoms: C_61  and  C_62 
REMARK   30  A    between atoms: C_62  and  C_63 
REMARK   31  A    between atoms: C_62  and  N_76 
REMARK   32  A    between atoms: C_63  and  C_64 
REMARK   33  A    between atoms: C_64  and  C_65 
REMARK   34  A    between atoms: C_64  and  N_90 
REMARK   35  A    between atoms: C_65  and  C_66 
REMARK   36  A    between atoms: C_66  and  C_67 
REMARK   37  A    between atoms: C_66  and  N_80 
REMARK   38  A    between atoms: C_67  and  C_68 
REMARK   39  A    between atoms: C_68  and  C_69 
REMARK   40  A    between atoms: C_68  and  N_95 
REMARK   41  A    between atoms: C_69  and  C_70 
REMARK   42  A    between atoms: C_70  and  N_85 
REMARK   43  A    between atoms: N_102  and  C_108 
REMARK   44  A    between atoms: C_107  and  C_108 
REMARK   45  A    between atoms: C_108  and  C_115 
REMARK   46  A    between atoms: N_111  and  C_117 
REMARK   47  A    between atoms: C_113  and  C_117 
REMARK   48  A    between atoms: C_113  and  C_119 
REMARK   49  A    between atoms: N_114  and  C_124 
REMARK   50  A    between atoms: C_115  and  C_119 
REMARK   51  A    between atoms: C_117  and  C_121 
REMARK   52  A    between atoms: N_118  and  C_119 
REMARK   53  A    between atoms: C_121  and  C_126 
REMARK   54  A    between atoms: C_124  and  C_125 
REMARK   55  A    between atoms: C_125  and  C_126 
REMARK   56  A    between atoms: C_126  and  N_129 
REMARK   57  A    between atoms: C_137  and  O_139 
REMARK   58  A    between atoms: C_142  and  C_144 
REMARK   59  A    between atoms: O_143  and  C_144 
REMARK   60  A    between atoms: C_147  and  C_149 
REMARK   61  A    between atoms: O_148  and  C_149 
ROOT
HETATM    1  C   UNL     1      15.761 -17.228  14.111  1.00  0.00     0.187 C 
HETATM    2  C   UNL     1      14.574 -16.538  14.874  1.00  0.00     0.180 C 
HETATM    3  C   UNL     1      17.141 -16.791  14.658  1.00  0.00     0.183 C 
HETATM    4  C   UNL     1      17.161 -16.828  16.217  1.00  0.00     0.208 C 
HETATM    5  C   UNL     1      16.016 -15.864  16.615  1.00  0.00     0.292 C 
HETATM    6  O   UNL     1      14.770 -16.468  16.298  1.00  0.00    -0.348 OA
ENDROOT
BRANCH   1   7
HETATM    7  O   UNL     1      15.654 -18.636  14.235  1.00  0.00    -0.348 OA
BRANCH   7   8
HETATM    8  C   UNL     1      15.094 -19.273  13.084  1.00  0.00     0.292 C 
HETATM    9  O   UNL     1      14.638 -18.273  12.195  1.00  0.00    -0.348 OA
HETATM   10  C   UNL     1      14.121 -18.792  10.962  1.00  0.00     0.180 C 
HETATM   11  C   UNL     1      13.444 -20.199  11.071  1.00  0.00     0.187 C 
HETATM   12  C   UNL     1      12.820 -20.321  12.459  1.00  0.00     0.183 C 
HETATM   13  C   UNL     1      13.952 -20.245  13.518  1.00  0.00     0.204 C 
BRANCH  10  14
HETATM   14  C   UNL     1      15.188 -18.761   9.860  1.00  0.00     0.203 C 
BRANCH  14  15
HETATM   15  O   UNL     1      16.281 -19.563  10.248  1.00  0.00    -0.379 OA
BRANCH  15  16
HETATM   16  C   UNL     1      16.445 -20.619   9.326  1.00  0.00     0.281 C 
BRANCH  16  17
HETATM   17  C   UNL     1      16.629 -21.893  10.088  1.00  0.00     0.313 C 
HETATM   18  O   UNL     1      16.728 -21.880  11.304  1.00  0.00    -0.260 OA
BRANCH  17  19
HETATM   19  O   UNL     1      16.686 -23.066   9.427  1.00  0.00    -0.148 OA
HETATM   20 Na   UNL     1      15.082 -24.285   9.411  1.00  0.00     0.000 Na
ENDBRANCH  17  19
ENDBRANCH  16  17
ENDBRANCH  15  16
ENDBRANCH  14  15
ENDBRANCH  10  14
BRANCH  11  21
HETATM   21  O   UNL     1      12.418 -20.320  10.097  1.00  0.00    -0.348 OA
BRANCH  21  22
HETATM   22  C   UNL     1      12.390 -21.562   9.417  1.00  0.00     0.292 C 
HETATM   23  O   UNL     1      13.196 -21.429   8.250  1.00  0.00    -0.351 OA
HETATM   24  C   UNL     1      13.053 -22.466   7.271  1.00  0.00     0.151 C 
HETATM   25  C   UNL     1      12.308 -23.716   7.795  1.00  0.00     0.068 C 
HETATM   26  C   UNL     1      10.922 -23.342   8.380  1.00  0.00     0.154 C 
HETATM   27  C   UNL     1      10.921 -21.936   9.058  1.00  0.00     0.205 C 
BRANCH  24  28
HETATM   28  C   UNL     1      14.455 -22.865   6.792  1.00  0.00     0.200 C 
BRANCH  28  29
HETATM   29  O   UNL     1      15.043 -21.776   6.110  1.00  0.00    -0.379 OA
BRANCH  29  30
HETATM   30  C   UNL     1      16.412 -22.036   5.876  1.00  0.00     0.281 C 
BRANCH  30  31
HETATM   31  C   UNL     1      16.791 -21.466   4.543  1.00  0.00     0.313 C 
HETATM   32  O   UNL     1      17.055 -22.208   3.609  1.00  0.00    -0.260 OA
BRANCH  31  33
HETATM   33  O   UNL     1      16.842 -20.132   4.367  1.00  0.00    -0.148 OA
HETATM   34 Na   UNL     1      15.271 -18.974   4.861  1.00  0.00     0.000 Na
ENDBRANCH  31  33
ENDBRANCH  30  31
ENDBRANCH  29  30
ENDBRANCH  28  29
ENDBRANCH  24  28
BRANCH  26  35
HETATM   35  O   UNL     1       9.881 -23.465   7.439  1.00  0.00    -0.393 OA
HETATM   36  H   UNL     1      10.285 -23.530   6.535  1.00  0.00     0.210 HD
ENDBRANCH  26  35
BRANCH  27  37
HETATM   37  O   UNL     1      10.268 -20.945   8.165  1.00  0.00    -0.376 OA
BRANCH  37  38
HETATM   38  C   UNL     1       9.143 -20.183   8.745  1.00  0.00     0.194 C 
BRANCH  38  39
HETATM   39  C   UNL     1       8.298 -21.028   9.747  1.00  0.00     0.116 C 
BRANCH  39  40
HETATM   40  C   UNL     1       6.835 -21.182   9.158  1.00  0.00     0.053 C 
BRANCH  40  41
HETATM   41  C   UNL     1       6.057 -22.543   9.263  1.00  0.00     0.094 C 
BRANCH  41  42
HETATM   42  C   UNL     1       4.505 -22.231   9.408  1.00  0.00     0.051 C 
BRANCH  42  43
HETATM   43  C   UNL     1       3.491 -22.215   8.210  1.00  0.00     0.094 C 
BRANCH  43  44
HETATM   44  C   UNL     1       4.056 -21.402   7.001  1.00  0.00     0.051 C 
BRANCH  44  45
HETATM   45  C   UNL     1       2.930 -20.862   6.084  1.00  0.00     0.094 C 
BRANCH  45  46
HETATM   46  C   UNL     1       1.710 -20.195   6.799  1.00  0.00     0.051 C 
BRANCH  46  47
HETATM   47  C   UNL     1       0.252 -20.559   6.384  1.00  0.00     0.089 C 
HETATM   48  C   UNL     1      -0.126 -19.796   5.104  1.00  0.00     0.033 C 
BRANCH  47  49
HETATM   49  N   UNL     1       0.024 -21.978   6.158  1.00  0.00    -0.334 N 
HETATM   50  C   UNL     1      -0.361 -22.912   7.138  1.00  0.00     0.210 A 
HETATM   51  N   UNL     1      -0.543 -24.071   6.635  1.00  0.00    -0.254 NA
HETATM   52  C   UNL     1      -0.290 -23.951   5.249  1.00  0.00     0.150 A 
HETATM   53  C   UNL     1       0.042 -22.699   4.947  1.00  0.00     0.082 A 
ENDBRANCH  47  49
ENDBRANCH  46  47
ENDBRANCH  45  46
BRANCH  45  54
HETATM   54  N   UNL     1       3.529 -19.951   5.071  1.00  0.00    -0.339 N 
HETATM   55  C   UNL     1       4.340 -18.901   5.339  1.00  0.00     0.209 A 
HETATM   56  N   UNL     1       4.767 -18.276   4.223  1.00  0.00    -0.254 NA
HETATM   57  C   UNL     1       4.210 -18.959   3.211  1.00  0.00     0.142 A 
HETATM   58  C   UNL     1       3.450 -19.992   3.723  1.00  0.00     0.026 A 
HETATM   59  C   UNL     1       2.692 -20.966   2.876  1.00  0.00     0.070 C 
ENDBRANCH  45  54
ENDBRANCH  44  45
ENDBRANCH  43  44
BRANCH  43  60
HETATM   60  N   UNL     1       3.198 -23.575   7.724  1.00  0.00    -0.345 N 
HETATM   61  C   UNL     1       2.672 -24.594   8.436  1.00  0.00     0.209 A 
HETATM   62  N   UNL     1       2.482 -25.696   7.685  1.00  0.00    -0.255 NA
HETATM   63  C   UNL     1       2.893 -25.349   6.450  1.00  0.00     0.135 A 
HETATM   64  C   UNL     1       3.323 -24.041   6.466  1.00  0.00     0.111 A 
ENDBRANCH  43  60
ENDBRANCH  42  43
ENDBRANCH  41  42
BRANCH  41  65
HETATM   65  N   UNL     1       6.473 -23.573   8.286  1.00  0.00    -0.339 N 
HETATM   66  C   UNL     1       6.763 -23.286   6.936  1.00  0.00     0.209 A 
HETATM   67  N   UNL     1       7.010 -24.447   6.192  1.00  0.00    -0.254 NA
HETATM   68  C   UNL     1       6.738 -25.489   7.090  1.00  0.00     0.142 A 
HETATM   69  C   UNL     1       6.385 -25.014   8.286  1.00  0.00     0.026 A 
HETATM   70  C   UNL     1       5.881 -25.954   9.355  1.00  0.00     0.070 C 
ENDBRANCH  41  65
ENDBRANCH  40  41
ENDBRANCH  39  40
BRANCH  39  71
HETATM   71  N   UNL     1       8.406 -20.551  11.154  1.00  0.00    -0.343 N 
HETATM   72  C   UNL     1       8.151 -21.217  12.305  1.00  0.00     0.111 A 
HETATM   73  C   UNL     1       8.354 -20.365  13.365  1.00  0.00     0.135 A 
HETATM   74  N   UNL     1       8.709 -19.158  12.897  1.00  0.00    -0.255 NA
HETATM   75  C   UNL     1       8.719 -19.298  11.558  1.00  0.00     0.209 A 
ENDBRANCH  39  71
ENDBRANCH  38  39
ENDBRANCH  37  38
ENDBRANCH  27  37
ENDBRANCH  21  22
ENDBRANCH  11  21
BRANCH  12  76
HETATM   76  O   UNL     1      11.823 -19.336  12.638  1.00  0.00    -0.390 OA
HETATM   77  H   UNL     1      11.078 -19.710  13.173  1.00  0.00     0.210 HD
ENDBRANCH  12  76
BRANCH  13  78
HETATM   78  O   UNL     1      13.397 -19.934  14.829  1.00  0.00    -0.388 OA
HETATM   79  H   UNL     1      13.931 -20.362  15.516  1.00  0.00     0.210 HD
ENDBRANCH  13  78
ENDBRANCH   7   8
ENDBRANCH   1   7
BRANCH   2  80
HETATM   80  C   UNL     1      14.185 -15.165  14.266  1.00  0.00     0.203 C 
BRANCH  80  81
HETATM   81  O   UNL     1      13.065 -14.623  14.941  1.00  0.00    -0.379 OA
BRANCH  81  82
HETATM   82  C   UNL     1      13.332 -13.324  15.423  1.00  0.00     0.281 C 
BRANCH  82  83
HETATM   83  C   UNL     1      12.653 -13.161  16.748  1.00  0.00     0.313 C 
HETATM   84  O   UNL     1      12.423 -12.043  17.180  1.00  0.00    -0.260 OA
BRANCH  83  85
HETATM   85  O   UNL     1      12.293 -14.239  17.472  1.00  0.00    -0.148 OA
HETATM   86 Na   UNL     1      13.660 -15.485  18.268  1.00  0.00     0.000 Na
ENDBRANCH  83  85
ENDBRANCH  82  83
ENDBRANCH  81  82
ENDBRANCH  80  81
ENDBRANCH   2  80
BRANCH   3  87
HETATM   87  O   UNL     1      18.158 -17.586  14.105  1.00  0.00    -0.390 OA
HETATM   88  H   UNL     1      18.098 -18.474  14.545  1.00  0.00     0.210 HD
ENDBRANCH   3  87
BRANCH   4  89
HETATM   89  O   UNL     1      16.994 -18.227  16.717  1.00  0.00    -0.376 OA
BRANCH  89  90
HETATM   90  C   UNL     1      18.181 -18.832  17.361  1.00  0.00     0.194 C 
BRANCH  90  91
HETATM   91  C   UNL     1      18.519 -20.301  16.874  1.00  0.00     0.116 C 
BRANCH  91  92
HETATM   92  N   UNL     1      19.498 -20.304  15.759  1.00  0.00    -0.343 N 
HETATM   93  C   UNL     1      19.372 -20.869  14.538  1.00  0.00     0.111 A 
HETATM   94  C   UNL     1      20.527 -20.648  13.827  1.00  0.00     0.135 A 
HETATM   95  N   UNL     1      21.391 -19.962  14.594  1.00  0.00    -0.255 NA
HETATM   96  C   UNL     1      20.744 -19.772  15.762  1.00  0.00     0.209 A 
ENDBRANCH  91  92
BRANCH  91  97
HETATM   97  C   UNL     1      18.875 -21.240  18.096  1.00  0.00     0.053 C 
BRANCH  97  98
HETATM   98  C   UNL     1      18.122 -21.163  19.488  1.00  0.00     0.094 C 
BRANCH  98  99
HETATM   99  C   UNL     1      16.632 -21.676  19.497  1.00  0.00     0.051 C 
BRANCH  99 100
HETATM  100  C   UNL     1      15.506 -20.591  19.468  1.00  0.00     0.094 C 
BRANCH 100 101
HETATM  101  N   UNL     1      15.365 -19.909  20.768  1.00  0.00    -0.345 N 
HETATM  102  C   UNL     1      16.010 -18.795  21.168  1.00  0.00     0.111 A 
HETATM  103  C   UNL     1      15.621 -18.512  22.457  1.00  0.00     0.135 A 
HETATM  104  N   UNL     1      14.748 -19.450  22.872  1.00  0.00    -0.255 NA
HETATM  105  C   UNL     1      14.617 -20.288  21.824  1.00  0.00     0.209 A 
ENDBRANCH 100 101
BRANCH 100 106
HETATM  106  C   UNL     1      14.101 -21.152  19.054  1.00  0.00     0.051 C 
BRANCH 106 107
HETATM  107  C   UNL     1      14.138 -22.699  18.905  1.00  0.00     0.094 C 
BRANCH 107 108
HETATM  108  C   UNL     1      13.520 -23.534  20.074  1.00  0.00     0.051 C 
BRANCH 108 109
HETATM  109  C   UNL     1      14.367 -24.630  20.791  1.00  0.00     0.089 C 
HETATM  110  C   UNL     1      15.130 -23.998  21.968  1.00  0.00     0.033 C 
BRANCH 109 111
HETATM  111  N   UNL     1      13.622 -25.776  21.286  1.00  0.00    -0.334 N 
HETATM  112  C   UNL     1      14.049 -26.826  22.122  1.00  0.00     0.082 A 
HETATM  113  C   UNL     1      12.997 -27.627  22.281  1.00  0.00     0.150 A 
HETATM  114  N   UNL     1      11.886 -27.133  21.559  1.00  0.00    -0.254 NA
HETATM  115  C   UNL     1      12.276 -26.061  20.988  1.00  0.00     0.210 A 
ENDBRANCH 109 111
ENDBRANCH 108 109
ENDBRANCH 107 108
BRANCH 107 116
HETATM  116  N   UNL     1      13.633 -23.123  17.599  1.00  0.00    -0.339 N 
HETATM  117  C   UNL     1      12.350 -23.641  17.329  1.00  0.00     0.209 A 
HETATM  118  N   UNL     1      12.197 -23.879  15.952  1.00  0.00    -0.254 NA
HETATM  119  C   UNL     1      13.428 -23.477  15.387  1.00  0.00     0.142 A 
HETATM  120  C   UNL     1      14.262 -23.034  16.329  1.00  0.00     0.026 A 
HETATM  121  C   UNL     1      15.646 -22.527  16.037  1.00  0.00     0.070 C 
ENDBRANCH 107 116
ENDBRANCH 106 107
ENDBRANCH 100 106
ENDBRANCH  99 100
ENDBRANCH  98  99
BRANCH  98 122
HETATM  122  N   UNL     1      18.898 -21.389  20.727  1.00  0.00    -0.339 N 
HETATM  123  C   UNL     1      19.553 -20.553  21.688  1.00  0.00     0.026 A 
HETATM  124  C   UNL     1      20.049 -21.288  22.684  1.00  0.00     0.142 A 
HETATM  125  C   UNL     1      19.679 -19.076  21.718  1.00  0.00     0.070 C 
HETATM  126  N   UNL     1      19.722 -22.643  22.522  1.00  0.00    -0.254 NA
HETATM  127  C   UNL     1      18.967 -22.666  21.340  1.00  0.00     0.209 A 
ENDBRANCH  98 122
ENDBRANCH  97  98
ENDBRANCH  91  97
ENDBRANCH  90  91
ENDBRANCH  89  90
ENDBRANCH   4  89
BRANCH   5 128
HETATM  128  O   UNL     1      16.083 -15.445  17.990  1.00  0.00    -0.348 OA
BRANCH 128 129
HETATM  129  C   UNL     1      17.405 -14.970  18.324  1.00  0.00     0.187 C 
HETATM  130  C   UNL     1      17.454 -13.436  18.581  1.00  0.00     0.180 C 
HETATM  131  O   UNL     1      18.809 -13.000  18.665  1.00  0.00    -0.348 OA
HETATM  132  C   UNL     1      16.770 -12.653  17.453  1.00  0.00     0.203 C 
HETATM  133  C   UNL     1      19.528 -13.608  19.731  1.00  0.00     0.292 C 
HETATM  134  O   UNL     1      19.157 -13.012  20.974  1.00  0.00    -0.348 OA
HETATM  135  C   UNL     1      19.426 -15.161  19.725  1.00  0.00     0.204 C 
HETATM  136  C   UNL     1      20.195 -12.180  21.507  1.00  0.00     0.187 C 
HETATM  137  C   UNL     1      19.624 -10.817  22.036  1.00  0.00     0.176 C 
HETATM  138  C   UNL     1      20.922 -12.876  22.669  1.00  0.00     0.180 C 
HETATM  139  O   UNL     1      20.491 -10.125  22.950  1.00  0.00    -0.378 OA
HETATM  140  C   UNL     1      19.223  -9.890  20.867  1.00  0.00     0.203 C 
HETATM  141  C   UNL     1      21.848 -10.478  22.790  1.00  0.00     0.202 C 
HETATM  142  C   UNL     1      22.095 -11.965  23.156  1.00  0.00     0.173 C 
HETATM  143  O   UNL     1      18.859  -8.581  21.272  1.00  0.00    -0.379 OA
HETATM  144  C   UNL     1      17.770  -8.578  22.170  1.00  0.00     0.280 C 
HETATM  145  C   UNL     1      17.100  -7.240  22.113  1.00  0.00     0.308 C 
HETATM  146  O   UNL     1      17.742  -6.225  22.328  1.00  0.00    -0.261 OA
HETATM  147  O   UNL     1      15.785  -7.149  21.840  1.00  0.00    -0.158 OA
HETATM  148 Na   UNL     1      14.669  -8.813  21.633  1.00  0.00    -0.020 Na
HETATM  149 Na   UNL     1      13.021  -9.840  19.803  1.00  0.00     0.080 Na
HETATM  150  O   UNL     1      14.515  -8.737  19.017  1.00  0.00    -0.180 OA
HETATM  151  C   UNL     1      15.571  -9.338  18.438  1.00  0.00     0.302 C 
HETATM  152  C   UNL     1      15.621 -10.835  18.363  1.00  0.00     0.280 C 
HETATM  153  O   UNL     1      16.471  -8.657  17.972  1.00  0.00    -0.261 OA
HETATM  154  O   UNL     1      16.804 -11.258  17.707  1.00  0.00    -0.379 OA
HETATM  155  C   UNL     1      17.977 -15.669  19.567  1.00  0.00     0.183 C 
BRANCH 142 156
HETATM  156  O   UNL     1      22.366 -12.154  24.585  1.00  0.00    -0.391 OA
HETATM  157  H   UNL     1      23.033 -11.512  24.875  1.00  0.00     0.210 HD
ENDBRANCH 142 156
BRANCH 138 158
HETATM  158  O   UNL     1      20.007 -13.200  23.694  1.00  0.00    -0.390 OA
HETATM  159  H   UNL     1      20.364 -13.953  24.229  1.00  0.00     0.210 HD
ENDBRANCH 138 158
BRANCH 135 160
HETATM  160  O   UNL     1      20.102 -15.746  20.883  1.00  0.00    -0.388 OA
HETATM  161  H   UNL     1      20.607 -15.058  21.344  1.00  0.00     0.210 HD
ENDBRANCH 135 160
BRANCH 155 162
HETATM  162  O   UNL     1      17.219 -15.374  20.712  1.00  0.00    -0.390 OA
HETATM  163  H   UNL     1      16.691 -14.560  20.502  1.00  0.00     0.210 HD
ENDBRANCH 155 162
ENDBRANCH 128 129
ENDBRANCH   5 128
TORSDOF 61
ENDMDL
MODEL 4
REMARK VINA RESULT:      -6.7      2.000      4.781
REMARK WARNING: 32 MAX_TORS EXCEEDED!!!
REMARK  61 active torsions:
REMARK  status: ('A' for Active; 'I' for Inactive)
REMARK    1  A    between atoms: C_1  and  O_30 
REMARK    2  A    between atoms: C_2  and  C_6 
REMARK    3  A    between atoms: C_3  and  O_9 
REMARK    4  A    between atoms: C_4  and  O_11 
REMARK    5  A    between atoms: C_5  and  O_12 
REMARK    6  A    between atoms: C_6  and  O_7 
REMARK    7  A    between atoms: O_7  and  C_147 
REMARK    8  A    between atoms: O_11  and  C_107 
REMARK    9  A    between atoms: O_12  and  C_20 
REMARK   10  A    between atoms: O_14  and  C_18 
REMARK   11  A    between atoms: O_21  and  C_24 
REMARK   12  A    between atoms: O_26  and  C_29 
REMARK   13  A    between atoms: C_28  and  C_34 
REMARK   14  A    between atoms: O_30  and  C_33 
REMARK   15  A    between atoms: C_31  and  O_53 
REMARK   16  A    between atoms: O_32  and  C_35 
REMARK   17  A    between atoms: C_34  and  O_59 
REMARK   18  A    between atoms: O_37  and  C_41 
REMARK   19  A    between atoms: O_43  and  C_46 
REMARK   20  A    between atoms: O_48  and  C_52 
REMARK   21  A    between atoms: C_50  and  C_57 
REMARK   22  A    between atoms: O_51  and  C_57 
REMARK   23  A    between atoms: O_51  and  C_60 
REMARK   24  A    between atoms: O_53  and  C_56 
REMARK   25  A    between atoms: O_55  and  C_58 
REMARK   26  A    between atoms: O_55  and  C_61 
REMARK   27  A    between atoms: O_59  and  C_142 
REMARK   28  A    between atoms: C_60  and  C_137 
REMARK   29  A    between atoms: C_61  and  C_62 
REMARK   30  A    between atoms: C_62  and  C_63 
REMARK   31  A    between atoms: C_62  and  N_76 
REMARK   32  A    between atoms: C_63  and  C_64 
REMARK   33  A    between atoms: C_64  and  C_65 
REMARK   34  A    between atoms: C_64  and  N_90 
REMARK   35  A    between atoms: C_65  and  C_66 
REMARK   36  A    between atoms: C_66  and  C_67 
REMARK   37  A    between atoms: C_66  and  N_80 
REMARK   38  A    between atoms: C_67  and  C_68 
REMARK   39  A    between atoms: C_68  and  C_69 
REMARK   40  A    between atoms: C_68  and  N_95 
REMARK   41  A    between atoms: C_69  and  C_70 
REMARK   42  A    between atoms: C_70  and  N_85 
REMARK   43  A    between atoms: N_102  and  C_108 
REMARK   44  A    between atoms: C_107  and  C_108 
REMARK   45  A    between atoms: C_108  and  C_115 
REMARK   46  A    between atoms: N_111  and  C_117 
REMARK   47  A    between atoms: C_113  and  C_117 
REMARK   48  A    between atoms: C_113  and  C_119 
REMARK   49  A    between atoms: N_114  and  C_124 
REMARK   50  A    between atoms: C_115  and  C_119 
REMARK   51  A    between atoms: C_117  and  C_121 
REMARK   52  A    between atoms: N_118  and  C_119 
REMARK   53  A    between atoms: C_121  and  C_126 
REMARK   54  A    between atoms: C_124  and  C_125 
REMARK   55  A    between atoms: C_125  and  C_126 
REMARK   56  A    between atoms: C_126  and  N_129 
REMARK   57  A    between atoms: C_137  and  O_139 
REMARK   58  A    between atoms: C_142  and  C_144 
REMARK   59  A    between atoms: O_143  and  C_144 
REMARK   60  A    between atoms: C_147  and  C_149 
REMARK   61  A    between atoms: O_148  and  C_149 
ROOT
HETATM    1  C   UNL     1      15.771 -17.165  14.117  1.00  0.00     0.187 C 
HETATM    2  C   UNL     1      14.582 -16.510  14.908  1.00  0.00     0.180 C 
HETATM    3  C   UNL     1      17.150 -16.723  14.662  1.00  0.00     0.183 C 
HETATM    4  C   UNL     1      17.185 -16.798  16.220  1.00  0.00     0.208 C 
HETATM    5  C   UNL     1      16.031 -15.859  16.652  1.00  0.00     0.292 C 
HETATM    6  O   UNL     1      14.791 -16.472  16.331  1.00  0.00    -0.348 OA
ENDROOT
BRANCH   1   7
HETATM    7  O   UNL     1      15.684 -18.576  14.208  1.00  0.00    -0.348 OA
BRANCH   7   8
HETATM    8  C   UNL     1      15.101 -19.191  13.055  1.00  0.00     0.292 C 
HETATM    9  O   UNL     1      14.681 -18.174  12.169  1.00  0.00    -0.348 OA
HETATM   10  C   UNL     1      14.147 -18.671  10.934  1.00  0.00     0.180 C 
HETATM   11  C   UNL     1      13.421 -20.054  11.040  1.00  0.00     0.187 C 
HETATM   12  C   UNL     1      12.792 -20.156  12.428  1.00  0.00     0.183 C 
HETATM   13  C   UNL     1      13.926 -20.124  13.487  1.00  0.00     0.204 C 
BRANCH  10  14
HETATM   14  C   UNL     1      15.214 -18.676   9.832  1.00  0.00     0.203 C 
BRANCH  14  15
HETATM   15  O   UNL     1      16.317 -19.447  10.256  1.00  0.00    -0.379 OA
BRANCH  15  16
HETATM   16  C   UNL     1      16.518 -20.518   9.360  1.00  0.00     0.281 C 
BRANCH  16  17
HETATM   17  C   UNL     1      16.589 -21.790  10.145  1.00  0.00     0.313 C 
HETATM   18  O   UNL     1      15.672 -22.595  10.104  1.00  0.00    -0.260 OA
BRANCH  17  19
HETATM   19  O   UNL     1      17.672 -22.050  10.902  1.00  0.00    -0.148 OA
HETATM   20 Na   UNL     1      18.874 -23.598  10.431  1.00  0.00     0.000 Na
ENDBRANCH  17  19
ENDBRANCH  16  17
ENDBRANCH  15  16
ENDBRANCH  14  15
ENDBRANCH  10  14
BRANCH  11  21
HETATM   21  O   UNL     1      12.391 -20.137  10.066  1.00  0.00    -0.348 OA
BRANCH  21  22
HETATM   22  C   UNL     1      12.422 -21.307   9.270  1.00  0.00     0.292 C 
HETATM   23  O   UNL     1      13.317 -21.066   8.188  1.00  0.00    -0.351 OA
HETATM   24  C   UNL     1      13.256 -22.003   7.106  1.00  0.00     0.151 C 
HETATM   25  C   UNL     1      12.477 -23.294   7.446  1.00  0.00     0.068 C 
HETATM   26  C   UNL     1      11.048 -22.974   7.952  1.00  0.00     0.154 C 
HETATM   27  C   UNL     1      10.987 -21.639   8.760  1.00  0.00     0.205 C 
BRANCH  24  28
HETATM   28  C   UNL     1      14.694 -22.360   6.703  1.00  0.00     0.200 C 
BRANCH  28  29
HETATM   29  O   UNL     1      14.929 -21.925   5.380  1.00  0.00    -0.379 OA
BRANCH  29  30
HETATM   30  C   UNL     1      15.297 -20.561   5.378  1.00  0.00     0.281 C 
BRANCH  30  31
HETATM   31  C   UNL     1      15.817 -20.202   4.019  1.00  0.00     0.313 C 
HETATM   32  O   UNL     1      17.017 -20.063   3.836  1.00  0.00    -0.260 OA
BRANCH  31  33
HETATM   33  O   UNL     1      14.964 -20.033   2.991  1.00  0.00    -0.148 OA
HETATM   34 Na   UNL     1      13.250 -21.085   2.899  1.00  0.00     0.000 Na
ENDBRANCH  31  33
ENDBRANCH  30  31
ENDBRANCH  29  30
ENDBRANCH  28  29
ENDBRANCH  24  28
BRANCH  26  35
HETATM   35  O   UNL     1      10.085 -23.001   6.925  1.00  0.00    -0.393 OA
HETATM   36  H   UNL     1      10.560 -22.980   6.053  1.00  0.00     0.210 HD
ENDBRANCH  26  35
BRANCH  27  37
HETATM   37  O   UNL     1      10.404 -20.564   7.918  1.00  0.00    -0.376 OA
BRANCH  37  38
HETATM   38  C   UNL     1       9.315 -19.774   8.529  1.00  0.00     0.194 C 
BRANCH  38  39
HETATM   39  C   UNL     1       8.367 -20.639   9.414  1.00  0.00     0.116 C 
BRANCH  39  40
HETATM   40  C   UNL     1       6.922 -20.615   8.766  1.00  0.00     0.053 C 
BRANCH  40  41
HETATM   41  C   UNL     1       5.970 -21.862   8.858  1.00  0.00     0.094 C 
BRANCH  41  42
HETATM   42  C   UNL     1       4.477 -21.383   8.598  1.00  0.00     0.051 C 
BRANCH  42  43
HETATM   43  C   UNL     1       3.732 -21.518   7.223  1.00  0.00     0.094 C 
BRANCH  43  44
HETATM   44  C   UNL     1       2.183 -21.570   7.422  1.00  0.00     0.051 C 
BRANCH  44  45
HETATM   45  C   UNL     1       1.515 -22.641   6.523  1.00  0.00     0.094 C 
BRANCH  45  46
HETATM   46  C   UNL     1       2.374 -23.185   5.335  1.00  0.00     0.051 C 
BRANCH  46  47
HETATM   47  C   UNL     1       2.029 -22.795   3.865  1.00  0.00     0.089 C 
HETATM   48  C   UNL     1       0.751 -21.943   3.843  1.00  0.00     0.033 C 
BRANCH  47  49
HETATM   49  N   UNL     1       3.080 -22.068   3.171  1.00  0.00    -0.334 N 
HETATM   50  C   UNL     1       4.457 -22.350   3.242  1.00  0.00     0.210 A 
HETATM   51  N   UNL     1       5.133 -21.580   2.480  1.00  0.00    -0.254 NA
HETATM   52  C   UNL     1       4.202 -20.732   1.838  1.00  0.00     0.150 A 
HETATM   53  C   UNL     1       2.965 -21.019   2.236  1.00  0.00     0.082 A 
ENDBRANCH  47  49
ENDBRANCH  46  47
ENDBRANCH  45  46
BRANCH  45  54
HETATM   54  N   UNL     1       1.017 -23.748   7.384  1.00  0.00    -0.339 N 
HETATM   55  C   UNL     1       1.758 -24.444   8.278  1.00  0.00     0.209 A 
HETATM   56  N   UNL     1       1.035 -25.364   8.948  1.00  0.00    -0.254 NA
HETATM   57  C   UNL     1      -0.211 -25.242   8.463  1.00  0.00     0.142 A 
HETATM   58  C   UNL     1      -0.231 -24.249   7.504  1.00  0.00     0.026 A 
HETATM   59  C   UNL     1      -1.462 -23.838   6.759  1.00  0.00     0.070 C 
ENDBRANCH  45  54
ENDBRANCH  44  45
ENDBRANCH  43  44
BRANCH  43  60
HETATM   60  N   UNL     1       4.022 -20.382   6.331  1.00  0.00    -0.345 N 
HETATM   61  C   UNL     1       5.230 -20.013   5.855  1.00  0.00     0.209 A 
HETATM   62  N   UNL     1       5.149 -18.958   5.021  1.00  0.00    -0.255 NA
HETATM   63  C   UNL     1       3.836 -18.663   4.962  1.00  0.00     0.135 A 
HETATM   64  C   UNL     1       3.137 -19.544   5.755  1.00  0.00     0.111 A 
ENDBRANCH  43  60
ENDBRANCH  42  43
ENDBRANCH  41  42
BRANCH  41  65
HETATM   65  N   UNL     1       6.451 -23.065   8.144  1.00  0.00    -0.339 N 
HETATM   66  C   UNL     1       5.833 -23.573   6.982  1.00  0.00     0.209 A 
HETATM   67  N   UNL     1       6.401 -24.787   6.572  1.00  0.00    -0.254 NA
HETATM   68  C   UNL     1       7.314 -25.096   7.590  1.00  0.00     0.142 A 
HETATM   69  C   UNL     1       7.330 -24.145   8.526  1.00  0.00     0.026 A 
HETATM   70  C   UNL     1       8.110 -24.353   9.802  1.00  0.00     0.070 C 
ENDBRANCH  41  65
ENDBRANCH  40  41
ENDBRANCH  39  40
BRANCH  39  71
HETATM   71  N   UNL     1       8.455 -20.309  10.864  1.00  0.00    -0.343 N 
HETATM   72  C   UNL     1       8.266 -21.114  11.937  1.00  0.00     0.111 A 
HETATM   73  C   UNL     1       8.416 -20.368  13.082  1.00  0.00     0.135 A 
HETATM   74  N   UNL     1       8.673 -19.093  12.746  1.00  0.00    -0.255 NA
HETATM   75  C   UNL     1       8.676 -19.087  11.400  1.00  0.00     0.209 A 
ENDBRANCH  39  71
ENDBRANCH  38  39
ENDBRANCH  37  38
ENDBRANCH  27  37
ENDBRANCH  21  22
ENDBRANCH  11  21
BRANCH  12  76
HETATM   76  O   UNL     1      11.831 -19.138  12.609  1.00  0.00    -0.390 OA
HETATM   77  H   UNL     1      11.073 -19.486  13.143  1.00  0.00     0.210 HD
ENDBRANCH  12  76
BRANCH  13  78
HETATM   78  O   UNL     1      13.382 -19.795  14.799  1.00  0.00    -0.388 OA
HETATM   79  H   UNL     1      13.956 -20.163  15.488  1.00  0.00     0.210 HD
ENDBRANCH  13  78
ENDBRANCH   7   8
ENDBRANCH   1   7
BRANCH   2  80
HETATM   80  C   UNL     1      14.170 -15.128  14.337  1.00  0.00     0.203 C 
BRANCH  80  81
HETATM   81  O   UNL     1      12.990 -14.663  14.967  1.00  0.00    -0.379 OA
BRANCH  81  82
HETATM   82  C   UNL     1      13.162 -13.363  15.488  1.00  0.00     0.281 C 
BRANCH  82  83
HETATM   83  C   UNL     1      12.734 -13.367  16.923  1.00  0.00     0.313 C 
HETATM   84  O   UNL     1      12.715 -12.323  17.556  1.00  0.00    -0.260 OA
BRANCH  83  85
HETATM   85  O   UNL     1      12.370 -14.516  17.527  1.00  0.00    -0.148 OA
HETATM   86 Na   UNL     1      13.713 -15.695  18.456  1.00  0.00     0.000 Na
ENDBRANCH  83  85
ENDBRANCH  82  83
ENDBRANCH  81  82
ENDBRANCH  80  81
ENDBRANCH   2  80
BRANCH   3  87
HETATM   87  O   UNL     1      18.172 -17.491  14.081  1.00  0.00    -0.390 OA
HETATM   88  H   UNL     1      18.129 -18.390  14.500  1.00  0.00     0.210 HD
ENDBRANCH   3  87
BRANCH   4  89
HETATM   89  O   UNL     1      17.042 -18.211  16.687  1.00  0.00    -0.376 OA
BRANCH  89  90
HETATM   90  C   UNL     1      18.225 -18.797  17.355  1.00  0.00     0.194 C 
BRANCH  90  91
HETATM   91  C   UNL     1      18.465 -20.331  17.043  1.00  0.00     0.116 C 
BRANCH  91  92
HETATM   92  N   UNL     1      19.480 -20.527  15.976  1.00  0.00    -0.343 N 
HETATM   93  C   UNL     1      19.734 -21.645  15.261  1.00  0.00     0.111 A 
HETATM   94  C   UNL     1      20.771 -21.389  14.396  1.00  0.00     0.135 A 
HETATM   95  N   UNL     1      21.186 -20.123  14.569  1.00  0.00    -0.255 NA
HETATM   96  C   UNL     1      20.391 -19.626  15.538  1.00  0.00     0.209 A 
ENDBRANCH  91  92
BRANCH  91  97
HETATM   97  C   UNL     1      18.707 -21.154  18.371  1.00  0.00     0.053 C 
BRANCH  97  98
HETATM   98  C   UNL     1      17.788 -21.003  19.654  1.00  0.00     0.094 C 
BRANCH  98  99
HETATM   99  C   UNL     1      16.387 -21.721  19.589  1.00  0.00     0.051 C 
BRANCH  99 100
HETATM  100  C   UNL     1      15.137 -20.880  20.014  1.00  0.00     0.094 C 
BRANCH 100 101
HETATM  101  N   UNL     1      14.995 -20.808  21.480  1.00  0.00    -0.345 N 
HETATM  102  C   UNL     1      14.628 -19.731  22.202  1.00  0.00     0.111 A 
HETATM  103  C   UNL     1      14.656 -20.076  23.533  1.00  0.00     0.135 A 
HETATM  104  N   UNL     1      15.051 -21.358  23.651  1.00  0.00    -0.255 NA
HETATM  105  C   UNL     1      15.256 -21.774  22.385  1.00  0.00     0.209 A 
ENDBRANCH 100 101
BRANCH 100 106
HETATM  106  C   UNL     1      13.789 -21.413  19.416  1.00  0.00     0.051 C 
BRANCH 106 107
HETATM  107  C   UNL     1      13.885 -22.926  19.078  1.00  0.00     0.094 C 
BRANCH 107 108
HETATM  108  C   UNL     1      13.301 -23.923  20.133  1.00  0.00     0.051 C 
BRANCH 108 109
HETATM  109  C   UNL     1      14.127 -25.168  20.580  1.00  0.00     0.089 C 
HETATM  110  C   UNL     1      15.443 -25.222  19.787  1.00  0.00     0.033 C 
BRANCH 109 111
HETATM  111  N   UNL     1      14.438 -25.239  21.998  1.00  0.00    -0.334 N 
HETATM  112  C   UNL     1      13.593 -25.058  23.109  1.00  0.00     0.082 A 
HETATM  113  C   UNL     1      14.354 -25.224  24.189  1.00  0.00     0.150 A 
HETATM  114  N   UNL     1      15.689 -25.502  23.814  1.00  0.00    -0.254 NA
HETATM  115  C   UNL     1      15.712 -25.502  22.538  1.00  0.00     0.210 A 
ENDBRANCH 109 111
ENDBRANCH 108 109
ENDBRANCH 107 108
BRANCH 107 116
HETATM  116  N   UNL     1      13.394 -23.205  17.728  1.00  0.00    -0.339 N 
HETATM  117  C   UNL     1      12.140 -23.755  17.394  1.00  0.00     0.209 A 
HETATM  118  N   UNL     1      11.990 -23.821  15.997  1.00  0.00    -0.254 NA
HETATM  119  C   UNL     1      13.192 -23.282  15.489  1.00  0.00     0.142 A 
HETATM  120  C   UNL     1      14.008 -22.919  16.480  1.00  0.00     0.026 A 
HETATM  121  C   UNL     1      15.359 -22.302  16.256  1.00  0.00     0.070 C 
ENDBRANCH 107 116
ENDBRANCH 106 107
ENDBRANCH 100 106
ENDBRANCH  99 100
ENDBRANCH  98  99
BRANCH  98 122
HETATM  122  N   UNL     1      18.433 -20.949  20.985  1.00  0.00    -0.339 N 
HETATM  123  C   UNL     1      18.567 -19.963  22.014  1.00  0.00     0.026 A 
HETATM  124  C   UNL     1      19.197 -20.476  23.072  1.00  0.00     0.142 A 
HETATM  125  C   UNL     1      18.072 -18.566  22.047  1.00  0.00     0.070 C 
HETATM  126  N   UNL     1      19.476 -21.838  22.881  1.00  0.00    -0.254 NA
HETATM  127  C   UNL     1      18.945 -22.114  21.612  1.00  0.00     0.209 A 
ENDBRANCH  98 122
ENDBRANCH  97  98
ENDBRANCH  91  97
ENDBRANCH  90  91
ENDBRANCH  89  90
ENDBRANCH   4  89
BRANCH   5 128
HETATM  128  O   UNL     1      16.106 -15.473  18.035  1.00  0.00    -0.348 OA
BRANCH 128 129
HETATM  129  C   UNL     1      17.428 -14.998  18.373  1.00  0.00     0.187 C 
HETATM  130  C   UNL     1      17.479 -13.464  18.620  1.00  0.00     0.180 C 
HETATM  131  O   UNL     1      18.835 -13.030  18.706  1.00  0.00    -0.348 OA
HETATM  132  C   UNL     1      16.802 -12.685  17.484  1.00  0.00     0.203 C 
HETATM  133  C   UNL     1      19.549 -13.633  19.779  1.00  0.00     0.292 C 
HETATM  134  O   UNL     1      19.173 -13.028  21.017  1.00  0.00    -0.348 OA
HETATM  135  C   UNL     1      19.443 -15.185  19.782  1.00  0.00     0.204 C 
HETATM  136  C   UNL     1      20.211 -12.195  21.549  1.00  0.00     0.187 C 
HETATM  137  C   UNL     1      19.641 -10.828  22.067  1.00  0.00     0.176 C 
HETATM  138  C   UNL     1      20.933 -12.886  22.718  1.00  0.00     0.180 C 
HETATM  139  O   UNL     1      20.506 -10.132  22.981  1.00  0.00    -0.378 OA
HETATM  140  C   UNL     1      19.247  -9.907  20.891  1.00  0.00     0.203 C 
HETATM  141  C   UNL     1      21.863 -10.489  22.827  1.00  0.00     0.202 C 
HETATM  142  C   UNL     1      22.105 -11.974  23.204  1.00  0.00     0.173 C 
HETATM  143  O   UNL     1      18.884  -8.594  21.286  1.00  0.00    -0.379 OA
HETATM  144  C   UNL     1      17.792  -8.584  22.180  1.00  0.00     0.280 C 
HETATM  145  C   UNL     1      17.125  -7.245  22.112  1.00  0.00     0.308 C 
HETATM  146  O   UNL     1      17.769  -6.229  22.323  1.00  0.00    -0.261 OA
HETATM  147  O   UNL     1      15.811  -7.153  21.834  1.00  0.00    -0.158 OA
HETATM  148 Na   UNL     1      14.693  -8.816  21.632  1.00  0.00    -0.020 Na
HETATM  149 Na   UNL     1      13.049  -9.850  19.802  1.00  0.00     0.080 Na
HETATM  150  O   UNL     1      14.549  -8.755  19.015  1.00  0.00    -0.180 OA
HETATM  151  C   UNL     1      15.606  -9.362  18.444  1.00  0.00     0.302 C 
HETATM  152  C   UNL     1      15.652 -10.860  18.379  1.00  0.00     0.280 C 
HETATM  153  O   UNL     1      16.509  -8.686  17.978  1.00  0.00    -0.261 OA
HETATM  154  O   UNL     1      16.837 -11.289  17.730  1.00  0.00    -0.379 OA
HETATM  155  C   UNL     1      17.993 -15.691  19.622  1.00  0.00     0.183 C 
BRANCH 142 156
HETATM  156  O   UNL     1      22.370 -12.154  24.635  1.00  0.00    -0.391 OA
HETATM  157  H   UNL     1      21.860 -12.910  24.966  1.00  0.00     0.210 HD
ENDBRANCH 142 156
BRANCH 138 158
HETATM  158  O   UNL     1      20.013 -13.201  23.741  1.00  0.00    -0.390 OA
HETATM  159  H   UNL     1      19.150 -12.749  23.560  1.00  0.00     0.210 HD
ENDBRANCH 138 158
BRANCH 135 160
HETATM  160  O   UNL     1      20.113 -15.765  20.946  1.00  0.00    -0.388 OA
HETATM  161  H   UNL     1      20.618 -15.075  21.405  1.00  0.00     0.210 HD
ENDBRANCH 135 160
BRANCH 155 162
HETATM  162  O   UNL     1      17.231 -15.387  20.762  1.00  0.00    -0.390 OA
HETATM  163  H   UNL     1      17.834 -14.907  21.387  1.00  0.00     0.210 HD
ENDBRANCH 155 162
ENDBRANCH 128 129
ENDBRANCH   5 128
TORSDOF 61
ENDMDL
MODEL 5
REMARK VINA RESULT:      -6.6      2.012      3.687
REMARK WARNING: 32 MAX_TORS EXCEEDED!!!
REMARK  61 active torsions:
REMARK  status: ('A' for Active; 'I' for Inactive)
REMARK    1  A    between atoms: C_1  and  O_30 
REMARK    2  A    between atoms: C_2  and  C_6 
REMARK    3  A    between atoms: C_3  and  O_9 
REMARK    4  A    between atoms: C_4  and  O_11 
REMARK    5  A    between atoms: C_5  and  O_12 
REMARK    6  A    between atoms: C_6  and  O_7 
REMARK    7  A    between atoms: O_7  and  C_147 
REMARK    8  A    between atoms: O_11  and  C_107 
REMARK    9  A    between atoms: O_12  and  C_20 
REMARK   10  A    between atoms: O_14  and  C_18 
REMARK   11  A    between atoms: O_21  and  C_24 
REMARK   12  A    between atoms: O_26  and  C_29 
REMARK   13  A    between atoms: C_28  and  C_34 
REMARK   14  A    between atoms: O_30  and  C_33 
REMARK   15  A    between atoms: C_31  and  O_53 
REMARK   16  A    between atoms: O_32  and  C_35 
REMARK   17  A    between atoms: C_34  and  O_59 
REMARK   18  A    between atoms: O_37  and  C_41 
REMARK   19  A    between atoms: O_43  and  C_46 
REMARK   20  A    between atoms: O_48  and  C_52 
REMARK   21  A    between atoms: C_50  and  C_57 
REMARK   22  A    between atoms: O_51  and  C_57 
REMARK   23  A    between atoms: O_51  and  C_60 
REMARK   24  A    between atoms: O_53  and  C_56 
REMARK   25  A    between atoms: O_55  and  C_58 
REMARK   26  A    between atoms: O_55  and  C_61 
REMARK   27  A    between atoms: O_59  and  C_142 
REMARK   28  A    between atoms: C_60  and  C_137 
REMARK   29  A    between atoms: C_61  and  C_62 
REMARK   30  A    between atoms: C_62  and  C_63 
REMARK   31  A    between atoms: C_62  and  N_76 
REMARK   32  A    between atoms: C_63  and  C_64 
REMARK   33  A    between atoms: C_64  and  C_65 
REMARK   34  A    between atoms: C_64  and  N_90 
REMARK   35  A    between atoms: C_65  and  C_66 
REMARK   36  A    between atoms: C_66  and  C_67 
REMARK   37  A    between atoms: C_66  and  N_80 
REMARK   38  A    between atoms: C_67  and  C_68 
REMARK   39  A    between atoms: C_68  and  C_69 
REMARK   40  A    between atoms: C_68  and  N_95 
REMARK   41  A    between atoms: C_69  and  C_70 
REMARK   42  A    between atoms: C_70  and  N_85 
REMARK   43  A    between atoms: N_102  and  C_108 
REMARK   44  A    between atoms: C_107  and  C_108 
REMARK   45  A    between atoms: C_108  and  C_115 
REMARK   46  A    between atoms: N_111  and  C_117 
REMARK   47  A    between atoms: C_113  and  C_117 
REMARK   48  A    between atoms: C_113  and  C_119 
REMARK   49  A    between atoms: N_114  and  C_124 
REMARK   50  A    between atoms: C_115  and  C_119 
REMARK   51  A    between atoms: C_117  and  C_121 
REMARK   52  A    between atoms: N_118  and  C_119 
REMARK   53  A    between atoms: C_121  and  C_126 
REMARK   54  A    between atoms: C_124  and  C_125 
REMARK   55  A    between atoms: C_125  and  C_126 
REMARK   56  A    between atoms: C_126  and  N_129 
REMARK   57  A    between atoms: C_137  and  O_139 
REMARK   58  A    between atoms: C_142  and  C_144 
REMARK   59  A    between atoms: O_143  and  C_144 
REMARK   60  A    between atoms: C_147  and  C_149 
REMARK   61  A    between atoms: O_148  and  C_149 
ROOT
HETATM    1  C   UNL     1      15.783 -17.151  14.012  1.00  0.00     0.187 C 
HETATM    2  C   UNL     1      15.064 -16.418  15.200  1.00  0.00     0.180 C 
HETATM    3  C   UNL     1      17.285 -16.789  13.925  1.00  0.00     0.183 C 
HETATM    4  C   UNL     1      17.957 -16.852  15.331  1.00  0.00     0.208 C 
HETATM    5  C   UNL     1      17.136 -15.841  16.169  1.00  0.00     0.292 C 
HETATM    6  O   UNL     1      15.843 -16.380  16.408  1.00  0.00    -0.348 OA
ENDROOT
BRANCH   1   7
HETATM    7  O   UNL     1      15.668 -18.554  14.178  1.00  0.00    -0.348 OA
BRANCH   7   8
HETATM    8  C   UNL     1      15.100 -19.221  13.048  1.00  0.00     0.292 C 
HETATM    9  O   UNL     1      14.612 -18.245  12.150  1.00  0.00    -0.348 OA
HETATM   10  C   UNL     1      14.084 -18.795  10.934  1.00  0.00     0.180 C 
HETATM   11  C   UNL     1      13.434 -20.211  11.079  1.00  0.00     0.187 C 
HETATM   12  C   UNL     1      12.834 -20.318  12.480  1.00  0.00     0.183 C 
HETATM   13  C   UNL     1      13.982 -20.205  13.518  1.00  0.00     0.204 C 
BRANCH  10  14
HETATM   14  C   UNL     1      15.132 -18.766   9.814  1.00  0.00     0.203 C 
BRANCH  14  15
HETATM   15  O   UNL     1      16.267 -19.500  10.219  1.00  0.00    -0.379 OA
BRANCH  15  16
HETATM   16  C   UNL     1      16.558 -20.490   9.259  1.00  0.00     0.281 C 
BRANCH  16  17
HETATM   17  C   UNL     1      16.918 -21.756   9.971  1.00  0.00     0.313 C 
HETATM   18  O   UNL     1      17.511 -22.649   9.387  1.00  0.00    -0.260 OA
BRANCH  17  19
HETATM   19  O   UNL     1      16.585 -21.912  11.267  1.00  0.00    -0.148 OA
HETATM   20 Na   UNL     1      16.648 -23.746  12.102  1.00  0.00     0.000 Na
ENDBRANCH  17  19
ENDBRANCH  16  17
ENDBRANCH  15  16
ENDBRANCH  14  15
ENDBRANCH  10  14
BRANCH  11  21
HETATM   21  O   UNL     1      12.394 -20.366  10.125  1.00  0.00    -0.348 OA
BRANCH  21  22
HETATM   22  C   UNL     1      12.427 -21.586   9.407  1.00  0.00     0.292 C 
HETATM   23  O   UNL     1      13.357 -21.430   8.339  1.00  0.00    -0.351 OA
HETATM   24  C   UNL     1      13.310 -22.434   7.318  1.00  0.00     0.151 C 
HETATM   25  C   UNL     1      12.499 -23.688   7.717  1.00  0.00     0.068 C 
HETATM   26  C   UNL     1      11.062 -23.313   8.159  1.00  0.00     0.154 C 
HETATM   27  C   UNL     1      11.002 -21.928   8.877  1.00  0.00     0.205 C 
BRANCH  24  28
HETATM   28  C   UNL     1      14.753 -22.838   6.982  1.00  0.00     0.200 C 
BRANCH  28  29
HETATM   29  O   UNL     1      15.369 -21.801   6.248  1.00  0.00    -0.379 OA
BRANCH  29  30
HETATM   30  C   UNL     1      16.672 -22.190   5.864  1.00  0.00     0.281 C 
BRANCH  30  31
HETATM   31  C   UNL     1      17.003 -21.546   4.552  1.00  0.00     0.313 C 
HETATM   32  O   UNL     1      17.345 -22.229   3.599  1.00  0.00    -0.260 OA
BRANCH  31  33
HETATM   33  O   UNL     1      16.922 -20.209   4.416  1.00  0.00    -0.148 OA
HETATM   34 Na   UNL     1      17.907 -19.269   2.932  1.00  0.00     0.000 Na
ENDBRANCH  31  33
ENDBRANCH  30  31
ENDBRANCH  29  30
ENDBRANCH  28  29
ENDBRANCH  24  28
BRANCH  26  35
HETATM   35  O   UNL     1      10.129 -23.392   7.107  1.00  0.00    -0.393 OA
HETATM   36  H   UNL     1      10.363 -24.173   6.541  1.00  0.00     0.210 HD
ENDBRANCH  26  35
BRANCH  27  37
HETATM   37  O   UNL     1      10.462 -20.901   7.951  1.00  0.00    -0.376 OA
BRANCH  37  38
HETATM   38  C   UNL     1       9.454 -19.979   8.513  1.00  0.00     0.194 C 
BRANCH  38  39
HETATM   39  C   UNL     1       8.350 -20.718   9.329  1.00  0.00     0.116 C 
BRANCH  39  40
HETATM   40  C   UNL     1       6.967 -20.531   8.578  1.00  0.00     0.053 C 
BRANCH  40  41
HETATM   41  C   UNL     1       5.809 -21.582   8.733  1.00  0.00     0.094 C 
BRANCH  41  42
HETATM   42  C   UNL     1       4.432 -20.879   8.366  1.00  0.00     0.051 C 
BRANCH  42  43
HETATM   43  C   UNL     1       3.635 -21.135   7.038  1.00  0.00     0.094 C 
BRANCH  43  44
HETATM   44  C   UNL     1       2.131 -20.743   7.196  1.00  0.00     0.051 C 
BRANCH  44  45
HETATM   45  C   UNL     1       1.183 -21.846   6.663  1.00  0.00     0.094 C 
BRANCH  45  46
HETATM   46  C   UNL     1      -0.246 -21.900   7.295  1.00  0.00     0.051 C 
BRANCH  46  47
HETATM   47  C   UNL     1      -1.205 -23.090   6.986  1.00  0.00     0.089 C 
HETATM   48  C   UNL     1      -0.536 -24.412   7.395  1.00  0.00     0.033 C 
BRANCH  47  49
HETATM   49  N   UNL     1      -2.501 -23.008   7.640  1.00  0.00    -0.334 N 
HETATM   50  C   UNL     1      -3.175 -21.819   7.978  1.00  0.00     0.210 A 
HETATM   51  N   UNL     1      -4.320 -22.059   8.490  1.00  0.00    -0.254 NA
HETATM   52  C   UNL     1      -4.467 -23.465   8.505  1.00  0.00     0.150 A 
HETATM   53  C   UNL     1      -3.387 -24.047   7.990  1.00  0.00     0.082 A 
ENDBRANCH  47  49
ENDBRANCH  46  47
ENDBRANCH  45  46
BRANCH  45  54
HETATM   54  N   UNL     1       1.116 -21.747   5.179  1.00  0.00    -0.339 N 
HETATM   55  C   UNL     1       1.656 -22.630   4.306  1.00  0.00     0.209 A 
HETATM   56  N   UNL     1       1.406 -22.308   3.021  1.00  0.00    -0.254 NA
HETATM   57  C   UNL     1       0.676 -21.183   3.083  1.00  0.00     0.142 A 
HETATM   58  C   UNL     1       0.491 -20.833   4.406  1.00  0.00     0.026 A 
HETATM   59  C   UNL     1      -0.287 -19.633   4.847  1.00  0.00     0.070 C 
ENDBRANCH  45  54
ENDBRANCH  44  45
ENDBRANCH  43  44
BRANCH  43  60
HETATM   60  N   UNL     1       4.178 -20.347   5.916  1.00  0.00    -0.345 N 
HETATM   61  C   UNL     1       5.188 -20.697   5.094  1.00  0.00     0.209 A 
HETATM   62  N   UNL     1       5.410 -19.776   4.136  1.00  0.00    -0.255 NA
HETATM   63  C   UNL     1       4.490 -18.816   4.360  1.00  0.00     0.135 A 
HETATM   64  C   UNL     1       3.722 -19.169   5.446  1.00  0.00     0.111 A 
ENDBRANCH  43  60
ENDBRANCH  42  43
ENDBRANCH  41  42
BRANCH  41  65
HETATM   65  N   UNL     1       6.094 -22.909   8.145  1.00  0.00    -0.339 N 
HETATM   66  C   UNL     1       7.090 -23.126   7.170  1.00  0.00     0.209 A 
HETATM   67  N   UNL     1       7.076 -24.440   6.685  1.00  0.00    -0.254 NA
HETATM   68  C   UNL     1       5.950 -25.014   7.293  1.00  0.00     0.142 A 
HETATM   69  C   UNL     1       5.343 -24.142   8.101  1.00  0.00     0.026 A 
HETATM   70  C   UNL     1       4.012 -24.488   8.724  1.00  0.00     0.070 C 
ENDBRANCH  41  65
ENDBRANCH  40  41
ENDBRANCH  39  40
BRANCH  39  71
HETATM   71  N   UNL     1       8.372 -20.389  10.781  1.00  0.00    -0.343 N 
HETATM   72  C   UNL     1       8.024 -21.160  11.838  1.00  0.00     0.111 A 
HETATM   73  C   UNL     1       8.174 -20.426  12.991  1.00  0.00     0.135 A 
HETATM   74  N   UNL     1       8.588 -19.189  12.673  1.00  0.00    -0.255 NA
HETATM   75  C   UNL     1       8.686 -19.193  11.331  1.00  0.00     0.209 A 
ENDBRANCH  39  71
ENDBRANCH  38  39
ENDBRANCH  37  38
ENDBRANCH  27  37
ENDBRANCH  21  22
ENDBRANCH  11  21
BRANCH  12  76
HETATM   76  O   UNL     1      11.824 -19.347  12.658  1.00  0.00    -0.390 OA
HETATM   77  H   UNL     1      11.795 -19.067  13.608  1.00  0.00     0.210 HD
ENDBRANCH  12  76
BRANCH  13  78
HETATM   78  O   UNL     1      13.444 -19.879  14.832  1.00  0.00    -0.388 OA
HETATM   79  H   UNL     1      13.239 -20.698  15.310  1.00  0.00     0.210 HD
ENDBRANCH  13  78
ENDBRANCH   7   8
ENDBRANCH   1   7
BRANCH   2  80
HETATM   80  C   UNL     1      14.524 -15.019  14.804  1.00  0.00     0.203 C 
BRANCH  80  81
HETATM   81  O   UNL     1      13.259 -14.789  15.397  1.00  0.00    -0.379 OA
BRANCH  81  82
HETATM   82  C   UNL     1      12.990 -13.410  15.522  1.00  0.00     0.281 C 
BRANCH  82  83
HETATM   83  C   UNL     1      12.505 -13.146  16.914  1.00  0.00     0.313 C 
HETATM   84  O   UNL     1      12.245 -14.080  17.655  1.00  0.00    -0.260 OA
BRANCH  83  85
HETATM   85  O   UNL     1      12.350 -11.883  17.359  1.00  0.00    -0.148 OA
HETATM   86 Na   UNL     1      13.205 -11.251  19.069  1.00  0.00     0.000 Na
ENDBRANCH  83  85
ENDBRANCH  82  83
ENDBRANCH  81  82
ENDBRANCH  80  81
ENDBRANCH   2  80
BRANCH   3  87
HETATM   87  O   UNL     1      17.934 -17.624  13.000  1.00  0.00    -0.390 OA
HETATM   88  H   UNL     1      18.197 -18.445  13.491  1.00  0.00     0.210 HD
ENDBRANCH   3  87
BRANCH   4  89
HETATM   89  O   UNL     1      17.947 -18.250  15.863  1.00  0.00    -0.376 OA
BRANCH  89  90
HETATM   90  C   UNL     1      19.217 -18.999  15.742  1.00  0.00     0.194 C 
BRANCH  90  91
HETATM   91  C   UNL     1      19.966 -19.253  17.114  1.00  0.00     0.116 C 
BRANCH  91  92
HETATM   92  N   UNL     1      21.024 -18.242  17.363  1.00  0.00    -0.343 N 
HETATM   93  C   UNL     1      22.362 -18.382  17.222  1.00  0.00     0.111 A 
HETATM   94  C   UNL     1      22.968 -17.202  17.581  1.00  0.00     0.135 A 
HETATM   95  N   UNL     1      22.027 -16.322  17.963  1.00  0.00    -0.255 NA
HETATM   96  C   UNL     1      20.859 -16.981  17.827  1.00  0.00     0.209 A 
ENDBRANCH  91  92
BRANCH  91  97
HETATM   97  C   UNL     1      18.937 -19.466  18.296  1.00  0.00     0.053 C 
BRANCH  97  98
HETATM   98  C   UNL     1      19.365 -20.025  19.717  1.00  0.00     0.094 C 
BRANCH  98  99
HETATM   99  C   UNL     1      18.546 -21.262  20.248  1.00  0.00     0.051 C 
BRANCH  99 100
HETATM  100  C   UNL     1      17.990 -21.174  21.707  1.00  0.00     0.094 C 
BRANCH 100 101
HETATM  101  N   UNL     1      18.821 -21.935  22.659  1.00  0.00    -0.345 N 
HETATM  102  C   UNL     1      18.924 -21.724  23.987  1.00  0.00     0.111 A 
HETATM  103  C   UNL     1      19.828 -22.627  24.496  1.00  0.00     0.135 A 
HETATM  104  N   UNL     1      20.303 -23.392  23.495  1.00  0.00    -0.255 NA
HETATM  105  C   UNL     1      19.675 -22.943  22.389  1.00  0.00     0.209 A 
ENDBRANCH 100 101
BRANCH 100 106
HETATM  106  C   UNL     1      16.508 -21.666  21.847  1.00  0.00     0.051 C 
BRANCH 106 107
HETATM  107  C   UNL     1      15.541 -20.773  21.021  1.00  0.00     0.094 C 
BRANCH 107 108
HETATM  108  C   UNL     1      14.285 -21.476  20.406  1.00  0.00     0.051 C 
BRANCH 108 109
HETATM  109  C   UNL     1      14.431 -22.842  19.669  1.00  0.00     0.089 C 
HETATM  110  C   UNL     1      13.692 -23.934  20.462  1.00  0.00     0.033 C 
BRANCH 109 111
HETATM  111  N   UNL     1      13.957 -22.868  18.295  1.00  0.00    -0.334 N 
HETATM  112  C   UNL     1      12.701 -23.257  17.790  1.00  0.00     0.082 A 
HETATM  113  C   UNL     1      12.766 -23.102  16.470  1.00  0.00     0.150 A 
HETATM  114  N   UNL     1      14.041 -22.626  16.089  1.00  0.00    -0.254 NA
HETATM  115  C   UNL     1      14.714 -22.502  17.167  1.00  0.00     0.210 A 
ENDBRANCH 109 111
ENDBRANCH 108 109
ENDBRANCH 107 108
BRANCH 107 116
HETATM  116  N   UNL     1      15.187 -19.553  21.747  1.00  0.00    -0.339 N 
HETATM  117  C   UNL     1      14.443 -19.479  22.941  1.00  0.00     0.209 A 
HETATM  118  N   UNL     1      14.355 -18.147  23.382  1.00  0.00    -0.254 NA
HETATM  119  C   UNL     1      15.081 -17.410  22.421  1.00  0.00     0.142 A 
HETATM  120  C   UNL     1      15.570 -18.213  21.475  1.00  0.00     0.026 A 
HETATM  121  C   UNL     1      16.397 -17.724  20.320  1.00  0.00     0.070 C 
ENDBRANCH 107 116
ENDBRANCH 106 107
ENDBRANCH 100 106
ENDBRANCH  99 100
ENDBRANCH  98  99
BRANCH  98 122
HETATM  122  N   UNL     1      20.794 -19.975  20.097  1.00  0.00    -0.339 N 
HETATM  123  C   UNL     1      21.620 -19.078  20.846  1.00  0.00     0.026 A 
HETATM  124  C   UNL     1      22.858 -19.563  20.954  1.00  0.00     0.142 A 
HETATM  125  C   UNL     1      21.261 -17.800  21.507  1.00  0.00     0.070 C 
HETATM  126  N   UNL     1      22.956 -20.830  20.359  1.00  0.00    -0.254 NA
HETATM  127  C   UNL     1      21.658 -21.081  19.891  1.00  0.00     0.209 A 
ENDBRANCH  98 122
ENDBRANCH  97  98
ENDBRANCH  91  97
ENDBRANCH  90  91
ENDBRANCH  89  90
ENDBRANCH   4  89
BRANCH   5 128
HETATM  128  O   UNL     1      17.796 -15.447  17.384  1.00  0.00    -0.348 OA
BRANCH 128 129
HETATM  129  C   UNL     1      17.033 -14.445  18.090  1.00  0.00     0.187 C 
HETATM  130  C   UNL     1      17.797 -13.837  19.301  1.00  0.00     0.180 C 
HETATM  131  O   UNL     1      16.912 -13.045  20.088  1.00  0.00    -0.348 OA
HETATM  132  C   UNL     1      18.388 -14.930  20.202  1.00  0.00     0.203 C 
HETATM  133  C   UNL     1      16.356 -11.947  19.373  1.00  0.00     0.292 C 
HETATM  134  O   UNL     1      17.327 -10.908  19.242  1.00  0.00    -0.348 OA
HETATM  135  C   UNL     1      15.702 -12.370  18.025  1.00  0.00     0.204 C 
HETATM  136  C   UNL     1      17.027  -9.781  20.074  1.00  0.00     0.187 C 
HETATM  137  C   UNL     1      18.306  -9.262  20.821  1.00  0.00     0.176 C 
HETATM  138  C   UNL     1      16.452  -8.618  19.247  1.00  0.00     0.180 C 
HETATM  139  O   UNL     1      18.199  -7.918  21.319  1.00  0.00    -0.378 OA
HETATM  140  C   UNL     1      18.719 -10.226  21.954  1.00  0.00     0.203 C 
HETATM  141  C   UNL     1      16.862  -7.522  21.539  1.00  0.00     0.202 C 
HETATM  142  C   UNL     1      16.065  -7.449  20.210  1.00  0.00     0.173 C 
HETATM  143  O   UNL     1      19.764  -9.733  22.776  1.00  0.00    -0.379 OA
HETATM  144  C   UNL     1      20.939  -9.457  22.044  1.00  0.00     0.280 C 
HETATM  145  C   UNL     1      22.109  -9.492  22.978  1.00  0.00     0.308 C 
HETATM  146  O   UNL     1      22.126  -8.773  23.965  1.00  0.00    -0.261 OA
HETATM  147  O   UNL     1      23.154 -10.303  22.729  1.00  0.00    -0.158 OA
HETATM  148 Na   UNL     1      23.223 -11.385  21.031  1.00  0.00    -0.020 Na
HETATM  149 Na   UNL     1      23.537 -13.950  20.365  1.00  0.00     0.080 Na
HETATM  150  O   UNL     1      22.586 -13.682  22.124  1.00  0.00    -0.180 OA
HETATM  151  C   UNL     1      21.251 -13.841  22.205  1.00  0.00     0.302 C 
HETATM  152  C   UNL     1      20.478 -14.239  20.984  1.00  0.00     0.280 C 
HETATM  153  O   UNL     1      20.688 -13.668  23.275  1.00  0.00    -0.261 OA
HETATM  154  O   UNL     1      19.099 -14.365  21.291  1.00  0.00    -0.379 OA
HETATM  155  C   UNL     1      16.610 -13.286  17.176  1.00  0.00     0.183 C 
BRANCH 142 156
HETATM  156  O   UNL     1      16.190  -6.146  19.552  1.00  0.00    -0.391 OA
HETATM  157  H   UNL     1      15.523  -6.071  18.851  1.00  0.00     0.210 HD
ENDBRANCH 142 156
BRANCH 138 158
HETATM  158  O   UNL     1      17.368  -8.232  18.245  1.00  0.00    -0.390 OA
HETATM  159  H   UNL     1      17.299  -8.855  17.478  1.00  0.00     0.210 HD
ENDBRANCH 138 158
BRANCH 135 160
HETATM  160  O   UNL     1      15.222 -11.208  17.277  1.00  0.00    -0.388 OA
HETATM  161  H   UNL     1      14.278 -11.075  17.458  1.00  0.00     0.210 HD
ENDBRANCH 135 160
BRANCH 155 162
HETATM  162  O   UNL     1      17.726 -12.578  16.701  1.00  0.00    -0.390 OA
HETATM  163  H   UNL     1      17.433 -12.100  15.882  1.00  0.00     0.210 HD
ENDBRANCH 155 162
ENDBRANCH 128 129
ENDBRANCH   5 128
TORSDOF 61
ENDMDL
MODEL 6
REMARK VINA RESULT:      -6.6      2.109      4.379
REMARK WARNING: 32 MAX_TORS EXCEEDED!!!
REMARK  61 active torsions:
REMARK  status: ('A' for Active; 'I' for Inactive)
REMARK    1  A    between atoms: C_1  and  O_30 
REMARK    2  A    between atoms: C_2  and  C_6 
REMARK    3  A    between atoms: C_3  and  O_9 
REMARK    4  A    between atoms: C_4  and  O_11 
REMARK    5  A    between atoms: C_5  and  O_12 
REMARK    6  A    between atoms: C_6  and  O_7 
REMARK    7  A    between atoms: O_7  and  C_147 
REMARK    8  A    between atoms: O_11  and  C_107 
REMARK    9  A    between atoms: O_12  and  C_20 
REMARK   10  A    between atoms: O_14  and  C_18 
REMARK   11  A    between atoms: O_21  and  C_24 
REMARK   12  A    between atoms: O_26  and  C_29 
REMARK   13  A    between atoms: C_28  and  C_34 
REMARK   14  A    between atoms: O_30  and  C_33 
REMARK   15  A    between atoms: C_31  and  O_53 
REMARK   16  A    between atoms: O_32  and  C_35 
REMARK   17  A    between atoms: C_34  and  O_59 
REMARK   18  A    between atoms: O_37  and  C_41 
REMARK   19  A    between atoms: O_43  and  C_46 
REMARK   20  A    between atoms: O_48  and  C_52 
REMARK   21  A    between atoms: C_50  and  C_57 
REMARK   22  A    between atoms: O_51  and  C_57 
REMARK   23  A    between atoms: O_51  and  C_60 
REMARK   24  A    between atoms: O_53  and  C_56 
REMARK   25  A    between atoms: O_55  and  C_58 
REMARK   26  A    between atoms: O_55  and  C_61 
REMARK   27  A    between atoms: O_59  and  C_142 
REMARK   28  A    between atoms: C_60  and  C_137 
REMARK   29  A    between atoms: C_61  and  C_62 
REMARK   30  A    between atoms: C_62  and  C_63 
REMARK   31  A    between atoms: C_62  and  N_76 
REMARK   32  A    between atoms: C_63  and  C_64 
REMARK   33  A    between atoms: C_64  and  C_65 
REMARK   34  A    between atoms: C_64  and  N_90 
REMARK   35  A    between atoms: C_65  and  C_66 
REMARK   36  A    between atoms: C_66  and  C_67 
REMARK   37  A    between atoms: C_66  and  N_80 
REMARK   38  A    between atoms: C_67  and  C_68 
REMARK   39  A    between atoms: C_68  and  C_69 
REMARK   40  A    between atoms: C_68  and  N_95 
REMARK   41  A    between atoms: C_69  and  C_70 
REMARK   42  A    between atoms: C_70  and  N_85 
REMARK   43  A    between atoms: N_102  and  C_108 
REMARK   44  A    between atoms: C_107  and  C_108 
REMARK   45  A    between atoms: C_108  and  C_115 
REMARK   46  A    between atoms: N_111  and  C_117 
REMARK   47  A    between atoms: C_113  and  C_117 
REMARK   48  A    between atoms: C_113  and  C_119 
REMARK   49  A    between atoms: N_114  and  C_124 
REMARK   50  A    between atoms: C_115  and  C_119 
REMARK   51  A    between atoms: C_117  and  C_121 
REMARK   52  A    between atoms: N_118  and  C_119 
REMARK   53  A    between atoms: C_121  and  C_126 
REMARK   54  A    between atoms: C_124  and  C_125 
REMARK   55  A    between atoms: C_125  and  C_126 
REMARK   56  A    between atoms: C_126  and  N_129 
REMARK   57  A    between atoms: C_137  and  O_139 
REMARK   58  A    between atoms: C_142  and  C_144 
REMARK   59  A    between atoms: O_143  and  C_144 
REMARK   60  A    between atoms: C_147  and  C_149 
REMARK   61  A    between atoms: O_148  and  C_149 
ROOT
HETATM    1  C   UNL     1      15.780 -17.239  13.774  1.00  0.00     0.187 C 
HETATM    2  C   UNL     1      14.927 -16.460  14.838  1.00  0.00     0.180 C 
HETATM    3  C   UNL     1      17.279 -16.858  13.834  1.00  0.00     0.183 C 
HETATM    4  C   UNL     1      17.793 -16.842  15.307  1.00  0.00     0.208 C 
HETATM    5  C   UNL     1      16.874 -15.804  15.997  1.00  0.00     0.292 C 
HETATM    6  O   UNL     1      15.569 -16.350  16.121  1.00  0.00    -0.348 OA
ENDROOT
BRANCH   1   7
HETATM    7  O   UNL     1      15.663 -18.634  13.997  1.00  0.00    -0.348 OA
BRANCH   7   8
HETATM    8  C   UNL     1      15.120 -19.349  12.884  1.00  0.00     0.292 C 
HETATM    9  O   UNL     1      14.511 -18.422  12.009  1.00  0.00    -0.348 OA
HETATM   10  C   UNL     1      13.994 -19.016  10.810  1.00  0.00     0.180 C 
HETATM   11  C   UNL     1      13.485 -20.488  10.970  1.00  0.00     0.187 C 
HETATM   12  C   UNL     1      12.949 -20.654  12.390  1.00  0.00     0.183 C 
HETATM   13  C   UNL     1      14.118 -20.435  13.388  1.00  0.00     0.204 C 
BRANCH  10  14
HETATM   14  C   UNL     1      14.993 -18.886   9.654  1.00  0.00     0.203 C 
BRANCH  14  15
HETATM   15  O   UNL     1      16.196 -19.537  10.002  1.00  0.00    -0.379 OA
BRANCH  15  16
HETATM   16  C   UNL     1      16.434 -20.601   9.107  1.00  0.00     0.281 C 
BRANCH  16  17
HETATM   17  C   UNL     1      16.745 -21.831   9.900  1.00  0.00     0.313 C 
HETATM   18  O   UNL     1      16.336 -22.922   9.536  1.00  0.00    -0.260 OA
BRANCH  17  19
HETATM   19  O   UNL     1      17.482 -21.735  11.023  1.00  0.00    -0.148 OA
HETATM   20 Na   UNL     1      17.904 -19.919  11.791  1.00  0.00     0.000 Na
ENDBRANCH  17  19
ENDBRANCH  16  17
ENDBRANCH  15  16
ENDBRANCH  14  15
ENDBRANCH  10  14
BRANCH  11  21
HETATM   21  O   UNL     1      12.431 -20.739  10.052  1.00  0.00    -0.348 OA
BRANCH  21  22
HETATM   22  C   UNL     1      12.548 -21.954   9.335  1.00  0.00     0.292 C 
HETATM   23  O   UNL     1      13.189 -21.661   8.097  1.00  0.00    -0.351 OA
HETATM   24  C   UNL     1      13.125 -22.690   7.101  1.00  0.00     0.151 C 
HETATM   25  C   UNL     1      12.669 -24.060   7.653  1.00  0.00     0.068 C 
HETATM   26  C   UNL     1      11.311 -23.948   8.390  1.00  0.00     0.154 C 
HETATM   27  C   UNL     1      11.137 -22.576   9.114  1.00  0.00     0.205 C 
BRANCH  24  28
HETATM   28  C   UNL     1      14.516 -22.826   6.468  1.00  0.00     0.200 C 
BRANCH  28  29
HETATM   29  O   UNL     1      14.664 -21.853   5.453  1.00  0.00    -0.379 OA
BRANCH  29  30
HETATM   30  C   UNL     1      15.504 -22.348   4.430  1.00  0.00     0.281 C 
BRANCH  30  31
HETATM   31  C   UNL     1      16.399 -21.240   3.962  1.00  0.00     0.313 C 
HETATM   32  O   UNL     1      17.317 -21.474   3.192  1.00  0.00    -0.260 OA
BRANCH  31  33
HETATM   33  O   UNL     1      16.194 -19.980   4.388  1.00  0.00    -0.148 OA
HETATM   34 Na   UNL     1      15.034 -19.617   5.994  1.00  0.00     0.000 Na
ENDBRANCH  31  33
ENDBRANCH  30  31
ENDBRANCH  29  30
ENDBRANCH  28  29
ENDBRANCH  24  28
BRANCH  26  35
HETATM   35  O   UNL     1      10.212 -24.237   7.557  1.00  0.00    -0.393 OA
HETATM   36  H   UNL     1      10.551 -24.696   6.744  1.00  0.00     0.210 HD
ENDBRANCH  26  35
BRANCH  27  37
HETATM   37  O   UNL     1      10.230 -21.701   8.329  1.00  0.00    -0.376 OA
BRANCH  37  38
HETATM   38  C   UNL     1       9.435 -20.723   9.100  1.00  0.00     0.194 C 
BRANCH  38  39
HETATM   39  C   UNL     1       8.283 -21.391   9.912  1.00  0.00     0.116 C 
BRANCH  39  40
HETATM   40  C   UNL     1       6.905 -20.998   9.234  1.00  0.00     0.053 C 
BRANCH  40  41
HETATM   41  C   UNL     1       5.722 -22.029   9.144  1.00  0.00     0.094 C 
BRANCH  41  42
HETATM   42  C   UNL     1       4.380 -21.237   8.833  1.00  0.00     0.051 C 
BRANCH  42  43
HETATM   43  C   UNL     1       3.628 -21.278   7.456  1.00  0.00     0.094 C 
BRANCH  43  44
HETATM   44  C   UNL     1       2.093 -21.055   7.642  1.00  0.00     0.051 C 
BRANCH  44  45
HETATM   45  C   UNL     1       1.255 -22.127   6.902  1.00  0.00     0.094 C 
BRANCH  45  46
HETATM   46  C   UNL     1       0.291 -22.987   7.782  1.00  0.00     0.051 C 
BRANCH  46  47
HETATM   47  C   UNL     1      -0.618 -24.074   7.132  1.00  0.00     0.089 C 
HETATM   48  C   UNL     1      -0.463 -25.400   7.895  1.00  0.00     0.033 C 
BRANCH  47  49
HETATM   49  N   UNL     1      -2.031 -23.733   7.086  1.00  0.00    -0.334 N 
HETATM   50  C   UNL     1      -2.949 -23.899   8.140  1.00  0.00     0.210 A 
HETATM   51  N   UNL     1      -4.106 -23.457   7.828  1.00  0.00    -0.254 NA
HETATM   52  C   UNL     1      -4.000 -22.949   6.512  1.00  0.00     0.150 A 
HETATM   53  C   UNL     1      -2.759 -23.099   6.058  1.00  0.00     0.082 A 
ENDBRANCH  47  49
ENDBRANCH  46  47
ENDBRANCH  45  46
BRANCH  45  54
HETATM   54  N   UNL     1       0.528 -21.477   5.777  1.00  0.00    -0.339 N 
HETATM   55  C   UNL     1      -0.263 -20.384   5.879  1.00  0.00     0.209 A 
HETATM   56  N   UNL     1      -0.761 -19.991   4.689  1.00  0.00    -0.254 NA
HETATM   57  C   UNL     1      -0.263 -20.865   3.801  1.00  0.00     0.142 A 
HETATM   58  C   UNL     1       0.532 -21.780   4.461  1.00  0.00     0.026 A 
HETATM   59  C   UNL     1       1.257 -22.897   3.777  1.00  0.00     0.070 C 
ENDBRANCH  45  54
ENDBRANCH  44  45
ENDBRANCH  43  44
BRANCH  43  60
HETATM   60  N   UNL     1       4.115 -20.231   6.538  1.00  0.00    -0.345 N 
HETATM   61  C   UNL     1       3.379 -19.516   5.662  1.00  0.00     0.209 A 
HETATM   62  N   UNL     1       4.116 -18.601   5.003  1.00  0.00    -0.255 NA
HETATM   63  C   UNL     1       5.362 -18.740   5.498  1.00  0.00     0.135 A 
HETATM   64  C   UNL     1       5.363 -19.733   6.451  1.00  0.00     0.111 A 
ENDBRANCH  43  60
ENDBRANCH  42  43
ENDBRANCH  41  42
BRANCH  41  65
HETATM   65  N   UNL     1       6.016 -23.243   8.351  1.00  0.00    -0.339 N 
HETATM   66  C   UNL     1       7.052 -23.311   7.396  1.00  0.00     0.209 A 
HETATM   67  N   UNL     1       7.043 -24.524   6.694  1.00  0.00    -0.254 NA
HETATM   68  C   UNL     1       5.883 -25.169   7.147  1.00  0.00     0.142 A 
HETATM   69  C   UNL     1       5.252 -24.434   8.066  1.00  0.00     0.026 A 
HETATM   70  C   UNL     1       3.890 -24.855   8.564  1.00  0.00     0.070 C 
ENDBRANCH  41  65
ENDBRANCH  40  41
ENDBRANCH  39  40
BRANCH  39  71
HETATM   71  N   UNL     1       8.393 -21.168  11.380  1.00  0.00    -0.343 N 
HETATM   72  C   UNL     1       8.639 -22.064  12.365  1.00  0.00     0.111 A 
HETATM   73  C   UNL     1       8.616 -21.410  13.575  1.00  0.00     0.135 A 
HETATM   74  N   UNL     1       8.334 -20.114  13.369  1.00  0.00    -0.255 NA
HETATM   75  C   UNL     1       8.191 -20.001  12.035  1.00  0.00     0.209 A 
ENDBRANCH  39  71
ENDBRANCH  38  39
ENDBRANCH  37  38
ENDBRANCH  27  37
ENDBRANCH  21  22
ENDBRANCH  11  21
BRANCH  12  76
HETATM   76  O   UNL     1      11.859 -19.784  12.610  1.00  0.00    -0.390 OA
HETATM   77  H   UNL     1      12.060 -19.183  13.371  1.00  0.00     0.210 HD
ENDBRANCH  12  76
BRANCH  13  78
HETATM   78  O   UNL     1      13.598 -20.165  14.722  1.00  0.00    -0.388 OA
HETATM   79  H   UNL     1      13.605 -19.209  14.884  1.00  0.00     0.210 HD
ENDBRANCH  13  78
ENDBRANCH   7   8
ENDBRANCH   1   7
BRANCH   2  80
HETATM   80  C   UNL     1      14.420 -15.090  14.315  1.00  0.00     0.203 C 
BRANCH  80  81
HETATM   81  O   UNL     1      13.165 -14.774  14.889  1.00  0.00    -0.379 OA
BRANCH  81  82
HETATM   82  C   UNL     1      13.102 -13.420  15.278  1.00  0.00     0.281 C 
BRANCH  82  83
HETATM   83  C   UNL     1      12.573 -13.353  16.678  1.00  0.00     0.313 C 
HETATM   84  O   UNL     1      12.667 -14.325  17.411  1.00  0.00    -0.260 OA
BRANCH  83  85
HETATM   85  O   UNL     1      11.991 -12.229  17.139  1.00  0.00    -0.148 OA
HETATM   86 Na   UNL     1      13.062 -10.766  18.016  1.00  0.00     0.000 Na
ENDBRANCH  83  85
ENDBRANCH  82  83
ENDBRANCH  81  82
ENDBRANCH  80  81
ENDBRANCH   2  80
BRANCH   3  87
HETATM   87  O   UNL     1      18.034 -17.727  13.029  1.00  0.00    -0.390 OA
HETATM   88  H   UNL     1      18.083 -18.594  13.510  1.00  0.00     0.210 HD
ENDBRANCH   3  87
BRANCH   4  89
HETATM   89  O   UNL     1      17.739 -18.211  15.904  1.00  0.00    -0.376 OA
BRANCH  89  90
HETATM   90  C   UNL     1      19.043 -18.864  16.150  1.00  0.00     0.194 C 
BRANCH  90  91
HETATM   91  C   UNL     1      19.758 -18.422  17.493  1.00  0.00     0.116 C 
BRANCH  91  92
HETATM   92  N   UNL     1      20.509 -17.152  17.329  1.00  0.00    -0.343 N 
HETATM   93  C   UNL     1      20.488 -16.060  18.126  1.00  0.00     0.111 A 
HETATM   94  C   UNL     1      21.318 -15.106  17.588  1.00  0.00     0.135 A 
HETATM   95  N   UNL     1      21.852 -15.578  16.449  1.00  0.00    -0.255 NA
HETATM   96  C   UNL     1      21.340 -16.818  16.313  1.00  0.00     0.209 A 
ENDBRANCH  91  92
BRANCH  91  97
HETATM   97  C   UNL     1      18.756 -18.468  18.716  1.00  0.00     0.053 C 
BRANCH  97  98
HETATM   98  C   UNL     1      19.180 -18.977  20.156  1.00  0.00     0.094 C 
BRANCH  98  99
HETATM   99  C   UNL     1      18.509 -20.317  20.640  1.00  0.00     0.051 C 
BRANCH  99 100
HETATM  100  C   UNL     1      17.610 -20.241  21.918  1.00  0.00     0.094 C 
BRANCH 100 101
HETATM  101  N   UNL     1      18.355 -19.734  23.086  1.00  0.00    -0.345 N 
HETATM  102  C   UNL     1      18.133 -18.580  23.745  1.00  0.00     0.111 A 
HETATM  103  C   UNL     1      19.070 -18.469  24.746  1.00  0.00     0.135 A 
HETATM  104  N   UNL     1      19.887 -19.539  24.709  1.00  0.00    -0.255 NA
HETATM  105  C   UNL     1      19.430 -20.288  23.684  1.00  0.00     0.209 A 
ENDBRANCH 100 101
BRANCH 100 106
HETATM  106  C   UNL     1      16.956 -21.611  22.311  1.00  0.00     0.051 C 
BRANCH 106 107
HETATM  107  C   UNL     1      15.405 -21.521  22.282  1.00  0.00     0.094 C 
BRANCH 107 108
HETATM  108  C   UNL     1      14.784 -20.086  22.226  1.00  0.00     0.051 C 
BRANCH 108 109
HETATM  109  C   UNL     1      14.244 -19.412  23.525  1.00  0.00     0.089 C 
HETATM  110  C   UNL     1      14.858 -20.103  24.755  1.00  0.00     0.033 C 
BRANCH 109 111
HETATM  111  N   UNL     1      14.477 -17.981  23.635  1.00  0.00    -0.334 N 
HETATM  112  C   UNL     1      14.242 -17.118  24.721  1.00  0.00     0.082 A 
HETATM  113  C   UNL     1      14.617 -15.905  24.323  1.00  0.00     0.150 A 
HETATM  114  N   UNL     1      15.088 -15.946  22.990  1.00  0.00    -0.254 NA
HETATM  115  C   UNL     1      14.993 -17.162  22.613  1.00  0.00     0.210 A 
ENDBRANCH 109 111
ENDBRANCH 108 109
ENDBRANCH 107 108
BRANCH 107 116
HETATM  116  N   UNL     1      14.837 -22.405  21.264  1.00  0.00    -0.339 N 
HETATM  117  C   UNL     1      14.244 -23.664  21.489  1.00  0.00     0.209 A 
HETATM  118  N   UNL     1      13.752 -24.196  20.284  1.00  0.00    -0.254 NA
HETATM  119  C   UNL     1      14.054 -23.214  19.316  1.00  0.00     0.142 A 
HETATM  120  C   UNL     1      14.676 -22.172  19.872  1.00  0.00     0.026 A 
HETATM  121  C   UNL     1      15.116 -20.962  19.099  1.00  0.00     0.070 C 
ENDBRANCH 107 116
ENDBRANCH 106 107
ENDBRANCH 100 106
ENDBRANCH  99 100
ENDBRANCH  98  99
BRANCH  98 122
HETATM  122  N   UNL     1      20.568 -18.740  20.611  1.00  0.00    -0.339 N 
HETATM  123  C   UNL     1      21.850 -19.303  20.313  1.00  0.00     0.026 A 
HETATM  124  C   UNL     1      22.811 -18.648  20.966  1.00  0.00     0.142 A 
HETATM  125  C   UNL     1      22.198 -20.409  19.388  1.00  0.00     0.070 C 
HETATM  126  N   UNL     1      22.282 -17.570  21.691  1.00  0.00    -0.254 NA
HETATM  127  C   UNL     1      20.909 -17.618  21.409  1.00  0.00     0.209 A 
ENDBRANCH  98 122
ENDBRANCH  97  98
ENDBRANCH  91  97
ENDBRANCH  90  91
ENDBRANCH  89  90
ENDBRANCH   4  89
BRANCH   5 128
HETATM  128  O   UNL     1      17.393 -15.341  17.256  1.00  0.00    -0.348 OA
BRANCH 128 129
HETATM  129  C   UNL     1      16.569 -14.288  17.803  1.00  0.00     0.187 C 
HETATM  130  C   UNL     1      17.067 -13.782  19.187  1.00  0.00     0.180 C 
HETATM  131  O   UNL     1      16.087 -12.928  19.774  1.00  0.00    -0.348 OA
HETATM  132  C   UNL     1      17.327 -14.944  20.154  1.00  0.00     0.203 C 
HETATM  133  C   UNL     1      15.817 -11.768  18.996  1.00  0.00     0.292 C 
HETATM  134  O   UNL     1      16.874 -10.821  19.147  1.00  0.00    -0.348 OA
HETATM  135  C   UNL     1      15.475 -12.097  17.514  1.00  0.00     0.204 C 
HETATM  136  C   UNL     1      16.479  -9.689  19.933  1.00  0.00     0.187 C 
HETATM  137  C   UNL     1      17.578  -9.309  20.986  1.00  0.00     0.176 C 
HETATM  138  C   UNL     1      16.222  -8.460  19.044  1.00  0.00     0.180 C 
HETATM  139  O   UNL     1      17.468  -7.972  21.503  1.00  0.00    -0.378 OA
HETATM  140  C   UNL     1      17.621 -10.333  22.141  1.00  0.00     0.203 C 
HETATM  141  C   UNL     1      16.156  -7.459  21.414  1.00  0.00     0.202 C 
HETATM  142  C   UNL     1      15.714  -7.282  19.938  1.00  0.00     0.173 C 
HETATM  143  O   UNL     1      18.474  -9.957  23.210  1.00  0.00    -0.379 OA
HETATM  144  C   UNL     1      19.810  -9.775  22.794  1.00  0.00     0.280 C 
HETATM  145  C   UNL     1      20.712  -9.941  23.978  1.00  0.00     0.308 C 
HETATM  146  O   UNL     1      20.551  -9.249  24.970  1.00  0.00    -0.261 OA
HETATM  147  O   UNL     1      21.714 -10.839  23.950  1.00  0.00    -0.158 OA
HETATM  148 Na   UNL     1      22.099 -11.884  22.272  1.00  0.00    -0.020 Na
HETATM  149 Na   UNL     1      22.346 -14.451  21.587  1.00  0.00     0.080 Na
HETATM  150  O   UNL     1      21.024 -14.136  23.077  1.00  0.00    -0.180 OA
HETATM  151  C   UNL     1      19.701 -14.172  22.830  1.00  0.00     0.302 C 
HETATM  152  C   UNL     1      19.216 -14.469  21.442  1.00  0.00     0.280 C 
HETATM  153  O   UNL     1      18.913 -13.972  23.741  1.00  0.00    -0.261 OA
HETATM  154  O   UNL     1      17.798 -14.472  21.405  1.00  0.00    -0.379 OA
HETATM  155  C   UNL     1      16.480 -13.074  16.867  1.00  0.00     0.183 C 
BRANCH 142 156
HETATM  156  O   UNL     1      16.105  -5.981  19.387  1.00  0.00    -0.391 OA
HETATM  157  H   UNL     1      16.858  -5.631  19.887  1.00  0.00     0.210 HD
ENDBRANCH 142 156
BRANCH 138 158
HETATM  158  O   UNL     1      17.383  -8.138  18.309  1.00  0.00    -0.390 OA
HETATM  159  H   UNL     1      17.448  -8.733  17.519  1.00  0.00     0.210 HD
ENDBRANCH 138 158
BRANCH 135 160
HETATM  160  O   UNL     1      15.291 -10.879  16.725  1.00  0.00    -0.388 OA
HETATM  161  H   UNL     1      15.405 -11.083  15.783  1.00  0.00     0.210 HD
ENDBRANCH 135 160
BRANCH 155 162
HETATM  162  O   UNL     1      17.735 -12.462  16.704  1.00  0.00    -0.390 OA
HETATM  163  H   UNL     1      18.414 -13.125  16.992  1.00  0.00     0.210 HD
ENDBRANCH 155 162
ENDBRANCH 128 129
ENDBRANCH   5 128
TORSDOF 61
ENDMDL
MODEL 7
REMARK VINA RESULT:      -6.5      4.219      8.408
REMARK WARNING: 32 MAX_TORS EXCEEDED!!!
REMARK  61 active torsions:
REMARK  status: ('A' for Active; 'I' for Inactive)
REMARK    1  A    between atoms: C_1  and  O_30 
REMARK    2  A    between atoms: C_2  and  C_6 
REMARK    3  A    between atoms: C_3  and  O_9 
REMARK    4  A    between atoms: C_4  and  O_11 
REMARK    5  A    between atoms: C_5  and  O_12 
REMARK    6  A    between atoms: C_6  and  O_7 
REMARK    7  A    between atoms: O_7  and  C_147 
REMARK    8  A    between atoms: O_11  and  C_107 
REMARK    9  A    between atoms: O_12  and  C_20 
REMARK   10  A    between atoms: O_14  and  C_18 
REMARK   11  A    between atoms: O_21  and  C_24 
REMARK   12  A    between atoms: O_26  and  C_29 
REMARK   13  A    between atoms: C_28  and  C_34 
REMARK   14  A    between atoms: O_30  and  C_33 
REMARK   15  A    between atoms: C_31  and  O_53 
REMARK   16  A    between atoms: O_32  and  C_35 
REMARK   17  A    between atoms: C_34  and  O_59 
REMARK   18  A    between atoms: O_37  and  C_41 
REMARK   19  A    between atoms: O_43  and  C_46 
REMARK   20  A    between atoms: O_48  and  C_52 
REMARK   21  A    between atoms: C_50  and  C_57 
REMARK   22  A    between atoms: O_51  and  C_57 
REMARK   23  A    between atoms: O_51  and  C_60 
REMARK   24  A    between atoms: O_53  and  C_56 
REMARK   25  A    between atoms: O_55  and  C_58 
REMARK   26  A    between atoms: O_55  and  C_61 
REMARK   27  A    between atoms: O_59  and  C_142 
REMARK   28  A    between atoms: C_60  and  C_137 
REMARK   29  A    between atoms: C_61  and  C_62 
REMARK   30  A    between atoms: C_62  and  C_63 
REMARK   31  A    between atoms: C_62  and  N_76 
REMARK   32  A    between atoms: C_63  and  C_64 
REMARK   33  A    between atoms: C_64  and  C_65 
REMARK   34  A    between atoms: C_64  and  N_90 
REMARK   35  A    between atoms: C_65  and  C_66 
REMARK   36  A    between atoms: C_66  and  C_67 
REMARK   37  A    between atoms: C_66  and  N_80 
REMARK   38  A    between atoms: C_67  and  C_68 
REMARK   39  A    between atoms: C_68  and  C_69 
REMARK   40  A    between atoms: C_68  and  N_95 
REMARK   41  A    between atoms: C_69  and  C_70 
REMARK   42  A    between atoms: C_70  and  N_85 
REMARK   43  A    between atoms: N_102  and  C_108 
REMARK   44  A    between atoms: C_107  and  C_108 
REMARK   45  A    between atoms: C_108  and  C_115 
REMARK   46  A    between atoms: N_111  and  C_117 
REMARK   47  A    between atoms: C_113  and  C_117 
REMARK   48  A    between atoms: C_113  and  C_119 
REMARK   49  A    between atoms: N_114  and  C_124 
REMARK   50  A    between atoms: C_115  and  C_119 
REMARK   51  A    between atoms: C_117  and  C_121 
REMARK   52  A    between atoms: N_118  and  C_119 
REMARK   53  A    between atoms: C_121  and  C_126 
REMARK   54  A    between atoms: C_124  and  C_125 
REMARK   55  A    between atoms: C_125  and  C_126 
REMARK   56  A    between atoms: C_126  and  N_129 
REMARK   57  A    between atoms: C_137  and  O_139 
REMARK   58  A    between atoms: C_142  and  C_144 
REMARK   59  A    between atoms: O_143  and  C_144 
REMARK   60  A    between atoms: C_147  and  C_149 
REMARK   61  A    between atoms: O_148  and  C_149 
ROOT
HETATM    1  C   UNL     1      15.873 -17.031  14.575  1.00  0.00     0.187 C 
HETATM    2  C   UNL     1      14.738 -16.277  15.356  1.00  0.00     0.180 C 
HETATM    3  C   UNL     1      17.267 -16.810  15.209  1.00  0.00     0.183 C 
HETATM    4  C   UNL     1      17.210 -16.987  16.758  1.00  0.00     0.208 C 
HETATM    5  C   UNL     1      16.165 -15.934  17.203  1.00  0.00     0.292 C 
HETATM    6  O   UNL     1      14.874 -16.357  16.786  1.00  0.00    -0.348 OA
ENDROOT
BRANCH   1   7
HETATM    7  O   UNL     1      15.601 -18.422  14.563  1.00  0.00    -0.348 OA
BRANCH   7   8
HETATM    8  C   UNL     1      14.578 -18.800  13.639  1.00  0.00     0.292 C 
HETATM    9  O   UNL     1      14.418 -20.203  13.695  1.00  0.00    -0.348 OA
HETATM   10  C   UNL     1      13.359 -20.695  12.862  1.00  0.00     0.180 C 
HETATM   11  C   UNL     1      13.107 -19.866  11.558  1.00  0.00     0.187 C 
HETATM   12  C   UNL     1      14.439 -19.273  11.106  1.00  0.00     0.183 C 
HETATM   13  C   UNL     1      14.945 -18.302  12.206  1.00  0.00     0.204 C 
BRANCH  10  14
HETATM   14  C   UNL     1      12.068 -20.890  13.667  1.00  0.00     0.203 C 
BRANCH  14  15
HETATM   15  O   UNL     1      11.277 -21.881  13.048  1.00  0.00    -0.379 OA
BRANCH  15  16
HETATM   16  C   UNL     1      10.722 -22.726  14.032  1.00  0.00     0.281 C 
BRANCH  16  17
HETATM   17  C   UNL     1      10.025 -23.860  13.349  1.00  0.00     0.313 C 
HETATM   18  O   UNL     1       9.288 -24.603  13.978  1.00  0.00    -0.260 OA
BRANCH  17  19
HETATM   19  O   UNL     1      10.211 -24.063  12.030  1.00  0.00    -0.148 OA
HETATM   20 Na   UNL     1      11.715 -23.121  11.075  1.00  0.00     0.000 Na
ENDBRANCH  17  19
ENDBRANCH  16  17
ENDBRANCH  15  16
ENDBRANCH  14  15
ENDBRANCH  10  14
BRANCH  11  21
HETATM   21  O   UNL     1      12.614 -20.715  10.532  1.00  0.00    -0.348 OA
BRANCH  21  22
HETATM   22  C   UNL     1      11.389 -20.299   9.957  1.00  0.00     0.292 C 
HETATM   23  O   UNL     1      10.579 -21.459   9.789  1.00  0.00    -0.351 OA
HETATM   24  C   UNL     1       9.431 -21.303   8.946  1.00  0.00     0.151 C 
HETATM   25  C   UNL     1       9.083 -19.828   8.638  1.00  0.00     0.068 C 
HETATM   26  C   UNL     1      10.294 -19.077   8.031  1.00  0.00     0.154 C 
HETATM   27  C   UNL     1      11.656 -19.588   8.597  1.00  0.00     0.205 C 
BRANCH  24  28
HETATM   28  C   UNL     1       8.238 -21.981   9.634  1.00  0.00     0.200 C 
BRANCH  28  29
HETATM   29  O   UNL     1       7.604 -21.053  10.490  1.00  0.00    -0.379 OA
BRANCH  29  30
HETATM   30  C   UNL     1       7.796 -21.431  11.838  1.00  0.00     0.281 C 
BRANCH  30  31
HETATM   31  C   UNL     1       8.236 -20.229  12.619  1.00  0.00     0.313 C 
HETATM   32  O   UNL     1       8.225 -20.250  13.840  1.00  0.00    -0.260 OA
BRANCH  31  33
HETATM   33  O   UNL     1       8.648 -19.120  11.977  1.00  0.00    -0.148 OA
HETATM   34 Na   UNL     1       9.916 -17.832  12.866  1.00  0.00     0.000 Na
ENDBRANCH  31  33
ENDBRANCH  30  31
ENDBRANCH  29  30
ENDBRANCH  28  29
ENDBRANCH  24  28
BRANCH  26  35
HETATM   35  O   UNL     1      10.286 -19.076   6.623  1.00  0.00    -0.393 OA
HETATM   36  H   UNL     1      10.013 -19.980   6.313  1.00  0.00     0.210 HD
ENDBRANCH  26  35
BRANCH  27  37
HETATM   37  O   UNL     1      12.321 -20.465   7.601  1.00  0.00    -0.376 OA
BRANCH  37  38
HETATM   38  C   UNL     1      13.789 -20.336   7.491  1.00  0.00     0.194 C 
BRANCH  38  39
HETATM   39  C   UNL     1      14.518 -21.713   7.528  1.00  0.00     0.116 C 
BRANCH  39  40
HETATM   40  C   UNL     1      15.307 -21.896   6.165  1.00  0.00     0.053 C 
BRANCH  40  41
HETATM   41  C   UNL     1      14.651 -21.510   4.790  1.00  0.00     0.094 C 
BRANCH  41  42
HETATM   42  C   UNL     1      15.470 -20.303   4.158  1.00  0.00     0.051 C 
BRANCH  42  43
HETATM   43  C   UNL     1      16.721 -20.476   3.225  1.00  0.00     0.094 C 
BRANCH  43  44
HETATM   44  C   UNL     1      16.815 -19.315   2.184  1.00  0.00     0.051 C 
BRANCH  44  45
HETATM   45  C   UNL     1      17.753 -19.667   1.003  1.00  0.00     0.094 C 
BRANCH  45  46
HETATM   46  C   UNL     1      17.061 -20.099  -0.332  1.00  0.00     0.051 C 
BRANCH  46  47
HETATM   47  C   UNL     1      16.626 -21.578  -0.555  1.00  0.00     0.089 C 
HETATM   48  C   UNL     1      17.394 -22.494   0.410  1.00  0.00     0.033 C 
BRANCH  47  49
HETATM   49  N   UNL     1      15.202 -21.822  -0.385  1.00  0.00    -0.334 N 
HETATM   50  C   UNL     1      14.476 -22.878  -0.968  1.00  0.00     0.210 A 
HETATM   51  N   UNL     1      13.255 -22.871  -0.593  1.00  0.00    -0.254 NA
HETATM   52  C   UNL     1      13.115 -21.780   0.295  1.00  0.00     0.150 A 
HETATM   53  C   UNL     1      14.277 -21.147   0.436  1.00  0.00     0.082 A 
ENDBRANCH  47  49
ENDBRANCH  46  47
ENDBRANCH  45  46
BRANCH  45  54
HETATM   54  N   UNL     1      18.695 -18.536   0.783  1.00  0.00    -0.339 N 
HETATM   55  C   UNL     1      18.356 -17.305   0.332  1.00  0.00     0.209 A 
HETATM   56  N   UNL     1      19.410 -16.466   0.268  1.00  0.00    -0.254 NA
HETATM   57  C   UNL     1      20.454 -17.191   0.701  1.00  0.00     0.142 A 
HETATM   58  C   UNL     1      20.023 -18.463   1.022  1.00  0.00     0.026 A 
HETATM   59  C   UNL     1      20.922 -19.538   1.547  1.00  0.00     0.070 C 
ENDBRANCH  45  54
ENDBRANCH  44  45
ENDBRANCH  43  44
BRANCH  43  60
HETATM   60  N   UNL     1      17.979 -20.478   3.994  1.00  0.00    -0.345 N 
HETATM   61  C   UNL     1      18.751 -21.546   4.281  1.00  0.00     0.209 A 
HETATM   62  N   UNL     1      19.863 -21.205   4.960  1.00  0.00    -0.255 NA
HETATM   63  C   UNL     1      19.791 -19.865   5.091  1.00  0.00     0.135 A 
HETATM   64  C   UNL     1      18.640 -19.413   4.487  1.00  0.00     0.111 A 
ENDBRANCH  43  60
ENDBRANCH  42  43
ENDBRANCH  41  42
BRANCH  41  65
HETATM   65  N   UNL     1      14.316 -22.657   3.919  1.00  0.00    -0.339 N 
HETATM   66  C   UNL     1      12.991 -23.044   3.625  1.00  0.00     0.209 A 
HETATM   67  N   UNL     1      12.941 -24.232   2.884  1.00  0.00    -0.254 NA
HETATM   68  C   UNL     1      14.277 -24.655   2.831  1.00  0.00     0.142 A 
HETATM   69  C   UNL     1      15.080 -23.791   3.456  1.00  0.00     0.026 A 
HETATM   70  C   UNL     1      16.535 -24.133   3.673  1.00  0.00     0.070 C 
ENDBRANCH  41  65
ENDBRANCH  40  41
ENDBRANCH  39  40
BRANCH  39  71
HETATM   71  N   UNL     1      13.632 -22.836   7.943  1.00  0.00    -0.343 N 
HETATM   72  C   UNL     1      12.538 -23.338   7.321  1.00  0.00     0.111 A 
HETATM   73  C   UNL     1      12.017 -24.352   8.090  1.00  0.00     0.135 A 
HETATM   74  N   UNL     1      12.754 -24.481   9.205  1.00  0.00    -0.255 NA
HETATM   75  C   UNL     1      13.713 -23.543   9.094  1.00  0.00     0.209 A 
ENDBRANCH  39  71
ENDBRANCH  38  39
ENDBRANCH  37  38
ENDBRANCH  27  37
ENDBRANCH  21  22
ENDBRANCH  11  21
BRANCH  12  76
HETATM   76  O   UNL     1      15.359 -20.301  10.805  1.00  0.00    -0.390 OA
HETATM   77  H   UNL     1      16.283 -19.955  10.885  1.00  0.00     0.210 HD
ENDBRANCH  12  76
BRANCH  13  78
HETATM   78  O   UNL     1      16.369 -18.043  12.033  1.00  0.00    -0.388 OA
HETATM   79  H   UNL     1      16.607 -18.156  11.100  1.00  0.00     0.210 HD
ENDBRANCH  13  78
ENDBRANCH   7   8
ENDBRANCH   1   7
BRANCH   2  80
HETATM   80  C   UNL     1      14.537 -14.820  14.864  1.00  0.00     0.203 C 
BRANCH  80  81
HETATM   81  O   UNL     1      13.200 -14.405  15.078  1.00  0.00    -0.379 OA
BRANCH  81  82
HETATM   82  C   UNL     1      13.138 -13.057  15.491  1.00  0.00     0.281 C 
BRANCH  82  83
HETATM   83  C   UNL     1      12.590 -13.014  16.885  1.00  0.00     0.313 C 
HETATM   84  O   UNL     1      12.332 -14.054  17.470  1.00  0.00    -0.260 OA
BRANCH  83  85
HETATM   85  O   UNL     1      12.377 -11.835  17.502  1.00  0.00    -0.148 OA
HETATM   86 Na   UNL     1      13.062 -10.101  16.738  1.00  0.00     0.000 Na
ENDBRANCH  83  85
ENDBRANCH  82  83
ENDBRANCH  81  82
ENDBRANCH  80  81
ENDBRANCH   2  80
BRANCH   3  87
HETATM   87  O   UNL     1      18.211 -17.668  14.622  1.00  0.00    -0.390 OA
HETATM   88  H   UNL     1      18.741 -18.061  15.363  1.00  0.00     0.210 HD
ENDBRANCH   3  87
BRANCH   4  89
HETATM   89  O   UNL     1      16.862 -18.396  17.120  1.00  0.00    -0.376 OA
BRANCH  89  90
HETATM   90  C   UNL     1      17.029 -18.760  18.543  1.00  0.00     0.194 C 
BRANCH  90  91
HETATM   91  C   UNL     1      16.313 -20.108  18.967  1.00  0.00     0.116 C 
BRANCH  91  92
HETATM   92  N   UNL     1      15.754 -20.030  20.341  1.00  0.00    -0.343 N 
HETATM   93  C   UNL     1      14.994 -20.943  20.986  1.00  0.00     0.111 A 
HETATM   94  C   UNL     1      14.680 -20.454  22.231  1.00  0.00     0.135 A 
HETATM   95  N   UNL     1      15.222 -19.233  22.374  1.00  0.00    -0.255 NA
HETATM   96  C   UNL     1      15.862 -18.999  21.211  1.00  0.00     0.209 A 
ENDBRANCH  91  92
BRANCH  91  97
HETATM   97  C   UNL     1      15.306 -20.596  17.850  1.00  0.00     0.053 C 
BRANCH  97  98
HETATM   98  C   UNL     1      15.311 -22.073  17.275  1.00  0.00     0.094 C 
BRANCH  98  99
HETATM   99  C   UNL     1      14.039 -22.497  16.448  1.00  0.00     0.051 C 
BRANCH  99 100
HETATM  100  C   UNL     1      13.812 -24.029  16.225  1.00  0.00     0.094 C 
BRANCH 100 101
HETATM  101  N   UNL     1      13.896 -24.396  14.799  1.00  0.00    -0.345 N 
HETATM  102  C   UNL     1      14.659 -23.805  13.858  1.00  0.00     0.111 A 
HETATM  103  C   UNL     1      14.415 -24.426  12.655  1.00  0.00     0.135 A 
HETATM  104  N   UNL     1      13.493 -25.392  12.834  1.00  0.00    -0.255 NA
HETATM  105  C   UNL     1      13.193 -25.345  14.147  1.00  0.00     0.209 A 
ENDBRANCH 100 101
BRANCH 100 106
HETATM  106  C   UNL     1      12.444 -24.551  16.787  1.00  0.00     0.051 C 
BRANCH 106 107
HETATM  107  C   UNL     1      12.649 -25.355  18.101  1.00  0.00     0.094 C 
BRANCH 107 108
HETATM  108  C   UNL     1      12.547 -24.553  19.441  1.00  0.00     0.051 C 
BRANCH 108 109
HETATM  109  C   UNL     1      12.654 -25.291  20.810  1.00  0.00     0.089 C 
HETATM  110  C   UNL     1      13.729 -24.613  21.676  1.00  0.00     0.033 C 
BRANCH 109 111
HETATM  111  N   UNL     1      11.423 -25.369  21.579  1.00  0.00    -0.334 N 
HETATM  112  C   UNL     1      11.227 -25.771  22.914  1.00  0.00     0.082 A 
HETATM  113  C   UNL     1       9.920 -25.668  23.147  1.00  0.00     0.150 A 
HETATM  114  N   UNL     1       9.246 -25.213  21.990  1.00  0.00    -0.254 NA
HETATM  115  C   UNL     1      10.140 -25.051  21.094  1.00  0.00     0.210 A 
ENDBRANCH 109 111
ENDBRANCH 108 109
ENDBRANCH 107 108
BRANCH 107 116
HETATM  116  N   UNL     1      11.827 -26.565  18.122  1.00  0.00    -0.339 N 
HETATM  117  C   UNL     1      10.456 -26.648  17.804  1.00  0.00     0.209 A 
HETATM  118  N   UNL     1      10.017 -27.982  17.873  1.00  0.00    -0.254 NA
HETATM  119  C   UNL     1      11.169 -28.713  18.233  1.00  0.00     0.142 A 
HETATM  120  C   UNL     1      12.222 -27.905  18.375  1.00  0.00     0.026 A 
HETATM  121  C   UNL     1      13.594 -28.391  18.745  1.00  0.00     0.070 C 
ENDBRANCH 107 116
ENDBRANCH 106 107
ENDBRANCH 100 106
ENDBRANCH  99 100
ENDBRANCH  98  99
BRANCH  98 122
HETATM  122  N   UNL     1      16.598 -22.661  16.841  1.00  0.00    -0.339 N 
HETATM  123  C   UNL     1      17.571 -22.358  15.836  1.00  0.00     0.026 A 
HETATM  124  C   UNL     1      18.613 -23.185  15.931  1.00  0.00     0.142 A 
HETATM  125  C   UNL     1      17.568 -21.276  14.823  1.00  0.00     0.070 C 
HETATM  126  N   UNL     1      18.469 -24.054  17.022  1.00  0.00    -0.254 NA
HETATM  127  C   UNL     1      17.247 -23.671  17.596  1.00  0.00     0.209 A 
ENDBRANCH  98 122
ENDBRANCH  97  98
ENDBRANCH  91  97
ENDBRANCH  90  91
ENDBRANCH  89  90
ENDBRANCH   4  89
BRANCH   5 128
HETATM  128  O   UNL     1      16.216 -15.649  18.612  1.00  0.00    -0.348 OA
BRANCH 128 129
HETATM  129  C   UNL     1      17.490 -15.080  18.982  1.00  0.00     0.187 C 
HETATM  130  C   UNL     1      17.464 -13.527  19.063  1.00  0.00     0.180 C 
HETATM  131  O   UNL     1      18.792 -13.024  19.191  1.00  0.00    -0.348 OA
HETATM  132  C   UNL     1      16.839 -12.907  17.806  1.00  0.00     0.203 C 
HETATM  133  C   UNL     1      19.450 -13.475  20.369  1.00  0.00     0.292 C 
HETATM  134  O   UNL     1      18.965 -12.760  21.505  1.00  0.00    -0.348 OA
HETATM  135  C   UNL     1      19.406 -15.022  20.535  1.00  0.00     0.204 C 
HETATM  136  C   UNL     1      19.929 -11.828  22.010  1.00  0.00     0.187 C 
HETATM  137  C   UNL     1      19.271 -10.441  22.336  1.00  0.00     0.176 C 
HETATM  138  C   UNL     1      20.591 -12.356  23.294  1.00  0.00     0.180 C 
HETATM  139  O   UNL     1      20.040  -9.612  23.224  1.00  0.00    -0.378 OA
HETATM  140  C   UNL     1      18.925  -9.670  21.043  1.00  0.00     0.203 C 
HETATM  141  C   UNL     1      21.417  -9.920  23.201  1.00  0.00     0.202 C 
HETATM  142  C   UNL     1      21.690 -11.344  23.754  1.00  0.00     0.173 C 
HETATM  143  O   UNL     1      18.485  -8.341  21.267  1.00  0.00    -0.379 OA
HETATM  144  C   UNL     1      17.332  -8.286  22.079  1.00  0.00     0.280 C 
HETATM  145  C   UNL     1      16.620  -6.994  21.820  1.00  0.00     0.308 C 
HETATM  146  O   UNL     1      17.207  -5.934  21.962  1.00  0.00    -0.261 OA
HETATM  147  O   UNL     1      15.326  -6.994  21.447  1.00  0.00    -0.158 OA
HETATM  148 Na   UNL     1      14.291  -8.719  21.355  1.00  0.00    -0.020 Na
HETATM  149 Na   UNL     1      12.823 -10.018  19.544  1.00  0.00     0.080 Na
HETATM  150  O   UNL     1      14.332  -8.944  18.743  1.00  0.00    -0.180 OA
HETATM  151  C   UNL     1      15.450  -9.560  18.314  1.00  0.00     0.302 C 
HETATM  152  C   UNL     1      15.559 -11.051  18.416  1.00  0.00     0.280 C 
HETATM  153  O   UNL     1      16.357  -8.895  17.838  1.00  0.00    -0.261 OA
HETATM  154  O   UNL     1      16.803 -11.492  17.899  1.00  0.00    -0.379 OA
HETATM  155  C   UNL     1      17.992 -15.609  20.335  1.00  0.00     0.183 C 
BRANCH 142 156
HETATM  156  O   UNL     1      21.859 -11.358  25.210  1.00  0.00    -0.391 OA
HETATM  157  H   UNL     1      21.250 -10.719  25.613  1.00  0.00     0.210 HD
ENDBRANCH 142 156
BRANCH 138 158
HETATM  158  O   UNL     1      19.614 -12.602  24.282  1.00  0.00    -0.390 OA
HETATM  159  H   UNL     1      20.059 -12.822  25.139  1.00  0.00     0.210 HD
ENDBRANCH 138 158
BRANCH 135 160
HETATM  160  O   UNL     1      20.013 -15.442  21.798  1.00  0.00    -0.388 OA
HETATM  161  H   UNL     1      19.610 -16.276  22.089  1.00  0.00     0.210 HD
ENDBRANCH 135 160
BRANCH 155 162
HETATM  162  O   UNL     1      17.139 -15.221  21.382  1.00  0.00    -0.390 OA
HETATM  163  H   UNL     1      17.417 -15.737  22.181  1.00  0.00     0.210 HD
ENDBRANCH 155 162
ENDBRANCH 128 129
ENDBRANCH   5 128
TORSDOF 61
ENDMDL
MODEL 8
REMARK VINA RESULT:      -6.5      2.416      5.143
REMARK WARNING: 32 MAX_TORS EXCEEDED!!!
REMARK  61 active torsions:
REMARK  status: ('A' for Active; 'I' for Inactive)
REMARK    1  A    between atoms: C_1  and  O_30 
REMARK    2  A    between atoms: C_2  and  C_6 
REMARK    3  A    between atoms: C_3  and  O_9 
REMARK    4  A    between atoms: C_4  and  O_11 
REMARK    5  A    between atoms: C_5  and  O_12 
REMARK    6  A    between atoms: C_6  and  O_7 
REMARK    7  A    between atoms: O_7  and  C_147 
REMARK    8  A    between atoms: O_11  and  C_107 
REMARK    9  A    between atoms: O_12  and  C_20 
REMARK   10  A    between atoms: O_14  and  C_18 
REMARK   11  A    between atoms: O_21  and  C_24 
REMARK   12  A    between atoms: O_26  and  C_29 
REMARK   13  A    between atoms: C_28  and  C_34 
REMARK   14  A    between atoms: O_30  and  C_33 
REMARK   15  A    between atoms: C_31  and  O_53 
REMARK   16  A    between atoms: O_32  and  C_35 
REMARK   17  A    between atoms: C_34  and  O_59 
REMARK   18  A    between atoms: O_37  and  C_41 
REMARK   19  A    between atoms: O_43  and  C_46 
REMARK   20  A    between atoms: O_48  and  C_52 
REMARK   21  A    between atoms: C_50  and  C_57 
REMARK   22  A    between atoms: O_51  and  C_57 
REMARK   23  A    between atoms: O_51  and  C_60 
REMARK   24  A    between atoms: O_53  and  C_56 
REMARK   25  A    between atoms: O_55  and  C_58 
REMARK   26  A    between atoms: O_55  and  C_61 
REMARK   27  A    between atoms: O_59  and  C_142 
REMARK   28  A    between atoms: C_60  and  C_137 
REMARK   29  A    between atoms: C_61  and  C_62 
REMARK   30  A    between atoms: C_62  and  C_63 
REMARK   31  A    between atoms: C_62  and  N_76 
REMARK   32  A    between atoms: C_63  and  C_64 
REMARK   33  A    between atoms: C_64  and  C_65 
REMARK   34  A    between atoms: C_64  and  N_90 
REMARK   35  A    between atoms: C_65  and  C_66 
REMARK   36  A    between atoms: C_66  and  C_67 
REMARK   37  A    between atoms: C_66  and  N_80 
REMARK   38  A    between atoms: C_67  and  C_68 
REMARK   39  A    between atoms: C_68  and  C_69 
REMARK   40  A    between atoms: C_68  and  N_95 
REMARK   41  A    between atoms: C_69  and  C_70 
REMARK   42  A    between atoms: C_70  and  N_85 
REMARK   43  A    between atoms: N_102  and  C_108 
REMARK   44  A    between atoms: C_107  and  C_108 
REMARK   45  A    between atoms: C_108  and  C_115 
REMARK   46  A    between atoms: N_111  and  C_117 
REMARK   47  A    between atoms: C_113  and  C_117 
REMARK   48  A    between atoms: C_113  and  C_119 
REMARK   49  A    between atoms: N_114  and  C_124 
REMARK   50  A    between atoms: C_115  and  C_119 
REMARK   51  A    between atoms: C_117  and  C_121 
REMARK   52  A    between atoms: N_118  and  C_119 
REMARK   53  A    between atoms: C_121  and  C_126 
REMARK   54  A    between atoms: C_124  and  C_125 
REMARK   55  A    between atoms: C_125  and  C_126 
REMARK   56  A    between atoms: C_126  and  N_129 
REMARK   57  A    between atoms: C_137  and  O_139 
REMARK   58  A    between atoms: C_142  and  C_144 
REMARK   59  A    between atoms: O_143  and  C_144 
REMARK   60  A    between atoms: C_147  and  C_149 
REMARK   61  A    between atoms: O_148  and  C_149 
ROOT
HETATM    1  C   UNL     1      15.587 -17.261  13.837  1.00  0.00     0.187 C 
HETATM    2  C   UNL     1      14.861 -16.484  14.993  1.00  0.00     0.180 C 
HETATM    3  C   UNL     1      17.097 -16.927  13.766  1.00  0.00     0.183 C 
HETATM    4  C   UNL     1      17.744 -16.966  15.185  1.00  0.00     0.208 C 
HETATM    5  C   UNL     1      16.927 -15.919  15.982  1.00  0.00     0.292 C 
HETATM    6  O   UNL     1      15.622 -16.428  16.213  1.00  0.00    -0.348 OA
ENDROOT
BRANCH   1   7
HETATM    7  O   UNL     1      15.445 -18.656  14.036  1.00  0.00    -0.348 OA
BRANCH   7   8
HETATM    8  C   UNL     1      14.994 -19.359  12.876  1.00  0.00     0.292 C 
HETATM    9  O   UNL     1      14.637 -18.413  11.889  1.00  0.00    -0.348 OA
HETATM   10  C   UNL     1      14.239 -19.003  10.643  1.00  0.00     0.180 C 
HETATM   11  C   UNL     1      13.542 -20.399  10.768  1.00  0.00     0.187 C 
HETATM   12  C   UNL     1      12.783 -20.435  12.093  1.00  0.00     0.183 C 
HETATM   13  C   UNL     1      13.806 -20.301  13.251  1.00  0.00     0.204 C 
BRANCH  10  14
HETATM   14  C   UNL     1      15.410 -19.042   9.652  1.00  0.00     0.203 C 
BRANCH  14  15
HETATM   15  O   UNL     1      16.403 -19.917  10.139  1.00  0.00    -0.379 OA
BRANCH  15  16
HETATM   16  C   UNL     1      16.649 -20.929   9.188  1.00  0.00     0.281 C 
BRANCH  16  17
HETATM   17  C   UNL     1      16.469 -22.259   9.849  1.00  0.00     0.313 C 
HETATM   18  O   UNL     1      16.331 -23.271   9.180  1.00  0.00    -0.260 OA
BRANCH  17  19
HETATM   19  O   UNL     1      16.458 -22.343  11.194  1.00  0.00    -0.148 OA
HETATM   20 Na   UNL     1      17.646 -23.680  12.123  1.00  0.00     0.000 Na
ENDBRANCH  17  19
ENDBRANCH  16  17
ENDBRANCH  15  16
ENDBRANCH  14  15
ENDBRANCH  10  14
BRANCH  11  21
HETATM   21  O   UNL     1      12.616 -20.574   9.706  1.00  0.00    -0.348 OA
BRANCH  21  22
HETATM   22  C   UNL     1      12.647 -21.853   9.098  1.00  0.00     0.292 C 
HETATM   23  O   UNL     1      13.199 -21.693   7.794  1.00  0.00    -0.351 OA
HETATM   24  C   UNL     1      13.033 -22.805   6.906  1.00  0.00     0.151 C 
HETATM   25  C   UNL     1      12.587 -24.105   7.615  1.00  0.00     0.068 C 
HETATM   26  C   UNL     1      11.292 -23.884   8.436  1.00  0.00     0.154 C 
HETATM   27  C   UNL     1      11.208 -22.447   9.040  1.00  0.00     0.205 C 
BRANCH  24  28
HETATM   28  C   UNL     1      14.369 -23.043   6.187  1.00  0.00     0.200 C 
BRANCH  28  29
HETATM   29  O   UNL     1      15.199 -21.912   6.360  1.00  0.00    -0.379 OA
BRANCH  29  30
HETATM   30  C   UNL     1      16.163 -21.860   5.328  1.00  0.00     0.281 C 
BRANCH  30  31
HETATM   31  C   UNL     1      15.991 -20.578   4.570  1.00  0.00     0.313 C 
HETATM   32  O   UNL     1      16.721 -20.318   3.627  1.00  0.00    -0.260 OA
BRANCH  31  33
HETATM   33  O   UNL     1      15.027 -19.707   4.925  1.00  0.00    -0.148 OA
HETATM   34 Na   UNL     1      14.216 -19.772   6.767  1.00  0.00     0.000 Na
ENDBRANCH  31  33
ENDBRANCH  30  31
ENDBRANCH  29  30
ENDBRANCH  28  29
ENDBRANCH  24  28
BRANCH  26  35
HETATM   35  O   UNL     1      10.127 -24.212   7.716  1.00  0.00    -0.393 OA
HETATM   36  H   UNL     1      10.384 -24.803   6.961  1.00  0.00     0.210 HD
ENDBRANCH  26  35
BRANCH  27  37
HETATM   37  O   UNL     1      10.266 -21.619   8.247  1.00  0.00    -0.376 OA
BRANCH  37  38
HETATM   38  C   UNL     1       9.419 -20.678   9.009  1.00  0.00     0.194 C 
BRANCH  38  39
HETATM   39  C   UNL     1       8.259 -21.393   9.767  1.00  0.00     0.116 C 
BRANCH  39  40
HETATM   40  C   UNL     1       6.884 -20.888   9.160  1.00  0.00     0.053 C 
BRANCH  40  41
HETATM   41  C   UNL     1       5.681 -21.876   8.944  1.00  0.00     0.094 C 
BRANCH  41  42
HETATM   42  C   UNL     1       4.416 -21.039   8.470  1.00  0.00     0.051 C 
BRANCH  42  43
HETATM   43  C   UNL     1       3.628 -21.306   7.138  1.00  0.00     0.094 C 
BRANCH  43  44
HETATM   44  C   UNL     1       2.147 -20.822   7.249  1.00  0.00     0.051 C 
BRANCH  44  45
HETATM   45  C   UNL     1       1.156 -21.822   6.604  1.00  0.00     0.094 C 
BRANCH  45  46
HETATM   46  C   UNL     1      -0.329 -21.741   7.088  1.00  0.00     0.051 C 
BRANCH  46  47
HETATM   47  C   UNL     1      -1.354 -22.844   6.685  1.00  0.00     0.089 C 
HETATM   48  C   UNL     1      -0.918 -24.194   7.276  1.00  0.00     0.033 C 
BRANCH  47  49
HETATM   49  N   UNL     1      -2.722 -22.579   7.104  1.00  0.00    -0.334 N 
HETATM   50  C   UNL     1      -3.107 -21.722   8.152  1.00  0.00     0.210 A 
HETATM   51  N   UNL     1      -4.378 -21.643   8.250  1.00  0.00    -0.254 NA
HETATM   52  C   UNL     1      -4.911 -22.462   7.229  1.00  0.00     0.150 A 
HETATM   53  C   UNL     1      -3.929 -23.023   6.527  1.00  0.00     0.082 A 
ENDBRANCH  47  49
ENDBRANCH  46  47
ENDBRANCH  45  46
BRANCH  45  54
HETATM   54  N   UNL     1       1.252 -21.706   5.124  1.00  0.00    -0.339 N 
HETATM   55  C   UNL     1       1.009 -20.585   4.404  1.00  0.00     0.209 A 
HETATM   56  N   UNL     1       1.212 -20.762   3.083  1.00  0.00    -0.254 NA
HETATM   57  C   UNL     1       1.603 -22.040   2.962  1.00  0.00     0.142 A 
HETATM   58  C   UNL     1       1.632 -22.627   4.211  1.00  0.00     0.026 A 
HETATM   59  C   UNL     1       2.033 -24.049   4.453  1.00  0.00     0.070 C 
ENDBRANCH  45  54
ENDBRANCH  44  45
ENDBRANCH  43  44
BRANCH  43  60
HETATM   60  N   UNL     1       4.235 -20.602   5.994  1.00  0.00    -0.345 N 
HETATM   61  C   UNL     1       4.895 -21.159   4.957  1.00  0.00     0.209 A 
HETATM   62  N   UNL     1       5.285 -20.243   4.049  1.00  0.00    -0.255 NA
HETATM   63  C   UNL     1       4.839 -19.066   4.532  1.00  0.00     0.135 A 
HETATM   64  C   UNL     1       4.181 -19.284   5.721  1.00  0.00     0.111 A 
ENDBRANCH  43  60
ENDBRANCH  42  43
ENDBRANCH  41  42
BRANCH  41  65
HETATM   65  N   UNL     1       6.018 -23.112   8.205  1.00  0.00    -0.339 N 
HETATM   66  C   UNL     1       6.988 -23.161   7.182  1.00  0.00     0.209 A 
HETATM   67  N   UNL     1       7.030 -24.414   6.556  1.00  0.00    -0.254 NA
HETATM   68  C   UNL     1       5.961 -25.116   7.131  1.00  0.00     0.142 A 
HETATM   69  C   UNL     1       5.337 -24.375   8.049  1.00  0.00     0.026 A 
HETATM   70  C   UNL     1       4.051 -24.866   8.670  1.00  0.00     0.070 C 
ENDBRANCH  41  65
ENDBRANCH  40  41
ENDBRANCH  39  40
BRANCH  39  71
HETATM   71  N   UNL     1       8.399 -21.331  11.248  1.00  0.00    -0.343 N 
HETATM   72  C   UNL     1       8.196 -20.285  12.084  1.00  0.00     0.111 A 
HETATM   73  C   UNL     1       8.480 -20.682  13.369  1.00  0.00     0.135 A 
HETATM   74  N   UNL     1       8.886 -21.962  13.354  1.00  0.00    -0.255 NA
HETATM   75  C   UNL     1       8.839 -22.322  12.057  1.00  0.00     0.209 A 
ENDBRANCH  39  71
ENDBRANCH  38  39
ENDBRANCH  37  38
ENDBRANCH  27  37
ENDBRANCH  21  22
ENDBRANCH  11  21
BRANCH  12  76
HETATM   76  O   UNL     1      11.783 -19.438  12.114  1.00  0.00    -0.390 OA
HETATM   77  H   UNL     1      10.937 -19.823  12.456  1.00  0.00     0.210 HD
ENDBRANCH  12  76
BRANCH  13  78
HETATM   78  O   UNL     1      13.128 -19.909  14.480  1.00  0.00    -0.388 OA
HETATM   79  H   UNL     1      12.930 -20.700  15.006  1.00  0.00     0.210 HD
ENDBRANCH  13  78
ENDBRANCH   7   8
ENDBRANCH   1   7
BRANCH   2  80
HETATM   80  C   UNL     1      14.353 -15.086  14.552  1.00  0.00     0.203 C 
BRANCH  80  81
HETATM   81  O   UNL     1      13.100 -14.804  15.148  1.00  0.00    -0.379 OA
BRANCH  81  82
HETATM   82  C   UNL     1      12.934 -13.420  15.368  1.00  0.00     0.281 C 
BRANCH  82  83
HETATM   83  C   UNL     1      12.449 -13.218  16.771  1.00  0.00     0.313 C 
HETATM   84  O   UNL     1      12.338 -14.176  17.520  1.00  0.00    -0.260 OA
BRANCH  83  85
HETATM   85  O   UNL     1      12.132 -11.987  17.217  1.00  0.00    -0.148 OA
HETATM   86 Na   UNL     1      12.988 -10.331  16.453  1.00  0.00     0.000 Na
ENDBRANCH  83  85
ENDBRANCH  82  83
ENDBRANCH  81  82
ENDBRANCH  80  81
ENDBRANCH   2  80
BRANCH   3  87
HETATM   87  O   UNL     1      17.746 -17.797  12.874  1.00  0.00    -0.390 OA
HETATM   88  H   UNL     1      17.867 -18.658  13.351  1.00  0.00     0.210 HD
ENDBRANCH   3  87
BRANCH   4  89
HETATM   89  O   UNL     1      17.700 -18.348  15.752  1.00  0.00    -0.376 OA
BRANCH  89  90
HETATM   90  C   UNL     1      18.646 -19.321  15.163  1.00  0.00     0.194 C 
BRANCH  90  91
HETATM   91  C   UNL     1      20.020 -19.457  15.940  1.00  0.00     0.116 C 
BRANCH  91  92
HETATM   92  N   UNL     1      20.922 -20.448  15.300  1.00  0.00    -0.343 N 
HETATM   93  C   UNL     1      21.855 -21.230  15.889  1.00  0.00     0.111 A 
HETATM   94  C   UNL     1      22.475 -21.982  14.920  1.00  0.00     0.135 A 
HETATM   95  N   UNL     1      21.953 -21.672  13.721  1.00  0.00    -0.255 NA
HETATM   96  C   UNL     1      21.019 -20.735  13.980  1.00  0.00     0.209 A 
ENDBRANCH  91  92
BRANCH  91  97
HETATM   97  C   UNL     1      20.659 -18.039  16.224  1.00  0.00     0.053 C 
BRANCH  97  98
HETATM   98  C   UNL     1      21.162 -17.595  17.660  1.00  0.00     0.094 C 
BRANCH  98  99
HETATM   99  C   UNL     1      21.415 -18.757  18.694  1.00  0.00     0.051 C 
BRANCH  99 100
HETATM  100  C   UNL     1      21.345 -18.387  20.212  1.00  0.00     0.094 C 
BRANCH 100 101
HETATM  101  N   UNL     1      22.688 -18.260  20.809  1.00  0.00    -0.345 N 
HETATM  102  C   UNL     1      23.275 -17.124  21.236  1.00  0.00     0.111 A 
HETATM  103  C   UNL     1      24.536 -17.437  21.690  1.00  0.00     0.135 A 
HETATM  104  N   UNL     1      24.747 -18.758  21.536  1.00  0.00    -0.255 NA
HETATM  105  C   UNL     1      23.607 -19.229  20.993  1.00  0.00     0.209 A 
ENDBRANCH 100 101
BRANCH 100 106
HETATM  106  C   UNL     1      20.521 -19.408  21.072  1.00  0.00     0.051 C 
BRANCH 106 107
HETATM  107  C   UNL     1      20.113 -18.788  22.437  1.00  0.00     0.094 C 
BRANCH 107 108
HETATM  108  C   UNL     1      18.611 -18.926  22.852  1.00  0.00     0.051 C 
BRANCH 108 109
HETATM  109  C   UNL     1      17.488 -18.314  21.958  1.00  0.00     0.089 C 
HETATM  110  C   UNL     1      16.524 -19.426  21.513  1.00  0.00     0.033 C 
BRANCH 109 111
HETATM  111  N   UNL     1      16.712 -17.246  22.568  1.00  0.00    -0.334 N 
HETATM  112  C   UNL     1      15.433 -16.766  22.230  1.00  0.00     0.082 A 
HETATM  113  C   UNL     1      15.166 -15.781  23.085  1.00  0.00     0.150 A 
HETATM  114  N   UNL     1      16.247 -15.594  23.977  1.00  0.00    -0.254 NA
HETATM  115  C   UNL     1      17.132 -16.454  23.653  1.00  0.00     0.210 A 
ENDBRANCH 109 111
ENDBRANCH 108 109
ENDBRANCH 107 108
BRANCH 107 116
HETATM  116  N   UNL     1      21.019 -19.206  23.507  1.00  0.00    -0.339 N 
HETATM  117  C   UNL     1      21.433 -20.525  23.782  1.00  0.00     0.209 A 
HETATM  118  N   UNL     1      22.355 -20.538  24.843  1.00  0.00    -0.254 NA
HETATM  119  C   UNL     1      22.499 -19.180  25.201  1.00  0.00     0.142 A 
HETATM  120  C   UNL     1      21.735 -18.401  24.432  1.00  0.00     0.026 A 
HETATM  121  C   UNL     1      21.681 -16.906  24.564  1.00  0.00     0.070 C 
ENDBRANCH 107 116
ENDBRANCH 106 107
ENDBRANCH 100 106
ENDBRANCH  99 100
ENDBRANCH  98  99
BRANCH  98 122
HETATM  122  N   UNL     1      22.055 -16.420  17.767  1.00  0.00    -0.339 N 
HETATM  123  C   UNL     1      23.467 -16.202  17.683  1.00  0.00     0.026 A 
HETATM  124  C   UNL     1      23.744 -14.900  17.776  1.00  0.00     0.142 A 
HETATM  125  C   UNL     1      24.558 -17.181  17.464  1.00  0.00     0.070 C 
HETATM  126  N   UNL     1      22.568 -14.140  17.862  1.00  0.00    -0.254 NA
HETATM  127  C   UNL     1      21.545 -15.097  17.798  1.00  0.00     0.209 A 
ENDBRANCH  98 122
ENDBRANCH  97  98
ENDBRANCH  91  97
ENDBRANCH  90  91
ENDBRANCH  89  90
ENDBRANCH   4  89
BRANCH   5 128
HETATM  128  O   UNL     1      17.574 -15.505  17.198  1.00  0.00    -0.348 OA
BRANCH 128 129
HETATM  129  C   UNL     1      16.803 -14.493  17.880  1.00  0.00     0.187 C 
HETATM  130  C   UNL     1      17.513 -13.936  19.147  1.00  0.00     0.180 C 
HETATM  131  O   UNL     1      16.607 -13.131  19.898  1.00  0.00    -0.348 OA
HETATM  132  C   UNL     1      18.013 -15.065  20.057  1.00  0.00     0.203 C 
HETATM  133  C   UNL     1      16.131 -12.001  19.176  1.00  0.00     0.292 C 
HETATM  134  O   UNL     1      17.140 -10.992  19.126  1.00  0.00    -0.348 OA
HETATM  135  C   UNL     1      15.545 -12.373  17.784  1.00  0.00     0.204 C 
HETATM  136  C   UNL     1      16.827  -9.872  19.964  1.00  0.00     0.187 C 
HETATM  137  C   UNL     1      18.075  -9.412  20.796  1.00  0.00     0.176 C 
HETATM  138  C   UNL     1      16.340  -8.674  19.131  1.00  0.00     0.180 C 
HETATM  139  O   UNL     1      17.981  -8.075  21.317  1.00  0.00    -0.378 OA
HETATM  140  C   UNL     1      18.389 -10.412  21.930  1.00  0.00     0.203 C 
HETATM  141  C   UNL     1      16.647  -7.640  21.467  1.00  0.00     0.202 C 
HETATM  142  C   UNL     1      15.934  -7.514  20.095  1.00  0.00     0.173 C 
HETATM  143  O   UNL     1      19.398  -9.970  22.823  1.00  0.00    -0.379 OA
HETATM  144  C   UNL     1      20.623  -9.719  22.168  1.00  0.00     0.280 C 
HETATM  145  C   UNL     1      21.734  -9.812  23.168  1.00  0.00     0.308 C 
HETATM  146  O   UNL     1      21.715  -9.114  24.170  1.00  0.00    -0.261 OA
HETATM  147  O   UNL     1      22.766 -10.652  22.963  1.00  0.00    -0.158 OA
HETATM  148 Na   UNL     1      22.901 -11.700  21.248  1.00  0.00    -0.020 Na
HETATM  149 Na   UNL     1      23.172 -14.260  20.545  1.00  0.00     0.080 Na
HETATM  150  O   UNL     1      22.126 -13.996  22.250  1.00  0.00    -0.180 OA
HETATM  151  C   UNL     1      20.785 -14.113  22.249  1.00  0.00     0.302 C 
HETATM  152  C   UNL     1      20.074 -14.461  20.975  1.00  0.00     0.280 C 
HETATM  153  O   UNL     1      20.165 -13.944  23.288  1.00  0.00    -0.261 OA
HETATM  154  O   UNL     1      18.676 -14.546  21.198  1.00  0.00    -0.379 OA
HETATM  155  C   UNL     1      16.472 -13.302  16.969  1.00  0.00     0.183 C 
BRANCH 142 156
HETATM  156  O   UNL     1      16.139  -6.202  19.474  1.00  0.00    -0.391 OA
HETATM  157  H   UNL     1      16.494  -6.318  18.579  1.00  0.00     0.210 HD
ENDBRANCH 142 156
BRANCH 138 158
HETATM  158  O   UNL     1      17.326  -8.299  18.193  1.00  0.00    -0.390 OA
HETATM  159  H   UNL     1      17.442  -7.316  18.213  1.00  0.00     0.210 HD
ENDBRANCH 138 158
BRANCH 135 160
HETATM  160  O   UNL     1      15.148 -11.181  17.034  1.00  0.00    -0.388 OA
HETATM  161  H   UNL     1      15.328 -10.390  17.566  1.00  0.00     0.210 HD
ENDBRANCH 135 160
BRANCH 155 162
HETATM  162  O   UNL     1      17.637 -12.621  16.576  1.00  0.00    -0.390 OA
HETATM  163  H   UNL     1      18.402 -13.125  16.956  1.00  0.00     0.210 HD
ENDBRANCH 155 162
ENDBRANCH 128 129
ENDBRANCH   5 128
TORSDOF 61
ENDMDL
MODEL 9
REMARK VINA RESULT:      -6.4      4.540      8.931
REMARK WARNING: 32 MAX_TORS EXCEEDED!!!
REMARK  61 active torsions:
REMARK  status: ('A' for Active; 'I' for Inactive)
REMARK    1  A    between atoms: C_1  and  O_30 
REMARK    2  A    between atoms: C_2  and  C_6 
REMARK    3  A    between atoms: C_3  and  O_9 
REMARK    4  A    between atoms: C_4  and  O_11 
REMARK    5  A    between atoms: C_5  and  O_12 
REMARK    6  A    between atoms: C_6  and  O_7 
REMARK    7  A    between atoms: O_7  and  C_147 
REMARK    8  A    between atoms: O_11  and  C_107 
REMARK    9  A    between atoms: O_12  and  C_20 
REMARK   10  A    between atoms: O_14  and  C_18 
REMARK   11  A    between atoms: O_21  and  C_24 
REMARK   12  A    between atoms: O_26  and  C_29 
REMARK   13  A    between atoms: C_28  and  C_34 
REMARK   14  A    between atoms: O_30  and  C_33 
REMARK   15  A    between atoms: C_31  and  O_53 
REMARK   16  A    between atoms: O_32  and  C_35 
REMARK   17  A    between atoms: C_34  and  O_59 
REMARK   18  A    between atoms: O_37  and  C_41 
REMARK   19  A    between atoms: O_43  and  C_46 
REMARK   20  A    between atoms: O_48  and  C_52 
REMARK   21  A    between atoms: C_50  and  C_57 
REMARK   22  A    between atoms: O_51  and  C_57 
REMARK   23  A    between atoms: O_51  and  C_60 
REMARK   24  A    between atoms: O_53  and  C_56 
REMARK   25  A    between atoms: O_55  and  C_58 
REMARK   26  A    between atoms: O_55  and  C_61 
REMARK   27  A    between atoms: O_59  and  C_142 
REMARK   28  A    between atoms: C_60  and  C_137 
REMARK   29  A    between atoms: C_61  and  C_62 
REMARK   30  A    between atoms: C_62  and  C_63 
REMARK   31  A    between atoms: C_62  and  N_76 
REMARK   32  A    between atoms: C_63  and  C_64 
REMARK   33  A    between atoms: C_64  and  C_65 
REMARK   34  A    between atoms: C_64  and  N_90 
REMARK   35  A    between atoms: C_65  and  C_66 
REMARK   36  A    between atoms: C_66  and  C_67 
REMARK   37  A    between atoms: C_66  and  N_80 
REMARK   38  A    between atoms: C_67  and  C_68 
REMARK   39  A    between atoms: C_68  and  C_69 
REMARK   40  A    between atoms: C_68  and  N_95 
REMARK   41  A    between atoms: C_69  and  C_70 
REMARK   42  A    between atoms: C_70  and  N_85 
REMARK   43  A    between atoms: N_102  and  C_108 
REMARK   44  A    between atoms: C_107  and  C_108 
REMARK   45  A    between atoms: C_108  and  C_115 
REMARK   46  A    between atoms: N_111  and  C_117 
REMARK   47  A    between atoms: C_113  and  C_117 
REMARK   48  A    between atoms: C_113  and  C_119 
REMARK   49  A    between atoms: N_114  and  C_124 
REMARK   50  A    between atoms: C_115  and  C_119 
REMARK   51  A    between atoms: C_117  and  C_121 
REMARK   52  A    between atoms: N_118  and  C_119 
REMARK   53  A    between atoms: C_121  and  C_126 
REMARK   54  A    between atoms: C_124  and  C_125 
REMARK   55  A    between atoms: C_125  and  C_126 
REMARK   56  A    between atoms: C_126  and  N_129 
REMARK   57  A    between atoms: C_137  and  O_139 
REMARK   58  A    between atoms: C_142  and  C_144 
REMARK   59  A    between atoms: O_143  and  C_144 
REMARK   60  A    between atoms: C_147  and  C_149 
REMARK   61  A    between atoms: O_148  and  C_149 
ROOT
HETATM    1  C   UNL     1      15.673 -16.444  14.017  1.00  0.00     0.187 C 
HETATM    2  C   UNL     1      14.469 -16.001  14.923  1.00  0.00     0.180 C 
HETATM    3  C   UNL     1      17.021 -15.872  14.515  1.00  0.00     0.183 C 
HETATM    4  C   UNL     1      17.169 -16.052  16.057  1.00  0.00     0.208 C 
HETATM    5  C   UNL     1      15.941 -15.299  16.627  1.00  0.00     0.292 C 
HETATM    6  O   UNL     1      14.765 -16.039  16.330  1.00  0.00    -0.348 OA
ENDROOT
BRANCH   1   7
HETATM    7  O   UNL     1      15.764 -17.858  14.001  1.00  0.00    -0.348 OA
BRANCH   7   8
HETATM    8  C   UNL     1      14.867 -18.481  13.078  1.00  0.00     0.292 C 
HETATM    9  O   UNL     1      14.615 -19.800  13.519  1.00  0.00    -0.348 OA
HETATM   10  C   UNL     1      13.662 -20.505  12.710  1.00  0.00     0.180 C 
HETATM   11  C   UNL     1      13.657 -20.102  11.197  1.00  0.00     0.187 C 
HETATM   12  C   UNL     1      15.075 -19.691  10.809  1.00  0.00     0.183 C 
HETATM   13  C   UNL     1      15.472 -18.443  11.639  1.00  0.00     0.204 C 
BRANCH  10  14
HETATM   14  C   UNL     1      12.256 -20.429  13.320  1.00  0.00     0.203 C 
BRANCH  14  15
HETATM   15  O   UNL     1      11.704 -21.726  13.380  1.00  0.00    -0.379 OA
BRANCH  15  16
HETATM   16  C   UNL     1      12.670 -22.629  13.870  1.00  0.00     0.281 C 
BRANCH  16  17
HETATM   17  C   UNL     1      12.071 -23.399  15.005  1.00  0.00     0.313 C 
HETATM   18  O   UNL     1      11.059 -24.061  14.839  1.00  0.00    -0.260 OA
BRANCH  17  19
HETATM   19  O   UNL     1      12.652 -23.363  16.219  1.00  0.00    -0.148 OA
HETATM   20 Na   UNL     1      11.739 -22.401  17.737  1.00  0.00     0.000 Na
ENDBRANCH  17  19
ENDBRANCH  16  17
ENDBRANCH  15  16
ENDBRANCH  14  15
ENDBRANCH  10  14
BRANCH  11  21
HETATM   21  O   UNL     1      13.270 -21.213  10.402  1.00  0.00    -0.348 OA
BRANCH  21  22
HETATM   22  C   UNL     1      11.930 -21.177   9.945  1.00  0.00     0.292 C 
HETATM   23  O   UNL     1      11.488 -22.524   9.805  1.00  0.00    -0.351 OA
HETATM   24  C   UNL     1      10.274 -22.710   9.066  1.00  0.00     0.151 C 
HETATM   25  C   UNL     1       9.479 -21.403   8.840  1.00  0.00     0.068 C 
HETATM   26  C   UNL     1      10.354 -20.320   8.161  1.00  0.00     0.154 C 
HETATM   27  C   UNL     1      11.851 -20.406   8.593  1.00  0.00     0.205 C 
BRANCH  24  28
HETATM   28  C   UNL     1       9.403 -23.718   9.828  1.00  0.00     0.200 C 
BRANCH  28  29
HETATM   29  O   UNL     1       8.343 -23.033  10.463  1.00  0.00    -0.379 OA
BRANCH  29  30
HETATM   30  C   UNL     1       8.735 -22.636  11.761  1.00  0.00     0.281 C 
BRANCH  30  31
HETATM   31  C   UNL     1       7.998 -21.382  12.125  1.00  0.00     0.313 C 
HETATM   32  O   UNL     1       6.778 -21.347  12.072  1.00  0.00    -0.260 OA
BRANCH  31  33
HETATM   33  O   UNL     1       8.678 -20.288  12.516  1.00  0.00    -0.148 OA
HETATM   34 Na   UNL     1       9.669 -20.269  14.269  1.00  0.00     0.000 Na
ENDBRANCH  31  33
ENDBRANCH  30  31
ENDBRANCH  29  30
ENDBRANCH  28  29
ENDBRANCH  24  28
BRANCH  26  35
HETATM   35  O   UNL     1      10.219 -20.310   6.759  1.00  0.00    -0.393 OA
HETATM   36  H   UNL     1       9.419 -19.770   6.527  1.00  0.00     0.210 HD
ENDBRANCH  26  35
BRANCH  27  37
HETATM   37  O   UNL     1      12.654 -21.037   7.515  1.00  0.00    -0.376 OA
BRANCH  37  38
HETATM   38  C   UNL     1      13.963 -20.417   7.225  1.00  0.00     0.194 C 
BRANCH  38  39
HETATM   39  C   UNL     1      15.154 -21.402   7.432  1.00  0.00     0.116 C 
BRANCH  39  40
HETATM   40  C   UNL     1      16.220 -21.140   6.289  1.00  0.00     0.053 C 
BRANCH  40  41
HETATM   41  C   UNL     1      16.719 -22.306   5.361  1.00  0.00     0.094 C 
BRANCH  41  42
HETATM   42  C   UNL     1      16.852 -21.753   3.878  1.00  0.00     0.051 C 
BRANCH  42  43
HETATM   43  C   UNL     1      18.162 -21.840   3.016  1.00  0.00     0.094 C 
BRANCH  43  44
HETATM   44  C   UNL     1      17.836 -21.822   1.488  1.00  0.00     0.051 C 
BRANCH  44  45
HETATM   45  C   UNL     1      16.849 -20.688   1.115  1.00  0.00     0.094 C 
BRANCH  45  46
HETATM   46  C   UNL     1      17.451 -19.466   0.347  1.00  0.00     0.051 C 
BRANCH  46  47
HETATM   47  C   UNL     1      18.842 -19.575  -0.348  1.00  0.00     0.089 C 
HETATM   48  C   UNL     1      18.654 -19.626  -1.873  1.00  0.00     0.033 C 
BRANCH  47  49
HETATM   49  N   UNL     1      19.762 -18.493  -0.034  1.00  0.00    -0.334 N 
HETATM   50  C   UNL     1      21.117 -18.434  -0.410  1.00  0.00     0.210 A 
HETATM   51  N   UNL     1      21.658 -17.337  -0.043  1.00  0.00    -0.254 NA
HETATM   52  C   UNL     1      20.648 -16.589   0.605  1.00  0.00     0.150 A 
HETATM   53  C   UNL     1      19.503 -17.266   0.610  1.00  0.00     0.082 A 
ENDBRANCH  47  49
ENDBRANCH  46  47
ENDBRANCH  45  46
BRANCH  45  54
HETATM   54  N   UNL     1      15.696 -21.276   0.381  1.00  0.00    -0.339 N 
HETATM   55  C   UNL     1      15.729 -21.753  -0.885  1.00  0.00     0.209 A 
HETATM   56  N   UNL     1      14.545 -22.264  -1.280  1.00  0.00    -0.254 NA
HETATM   57  C   UNL     1      13.733 -22.108  -0.222  1.00  0.00     0.142 A 
HETATM   58  C   UNL     1      14.433 -21.504   0.804  1.00  0.00     0.026 A 
HETATM   59  C   UNL     1      13.839 -21.186   2.140  1.00  0.00     0.070 C 
ENDBRANCH  45  54
ENDBRANCH  44  45
ENDBRANCH  43  44
BRANCH  43  60
HETATM   60  N   UNL     1      19.067 -20.708   3.284  1.00  0.00    -0.345 N 
HETATM   61  C   UNL     1      20.325 -20.549   2.822  1.00  0.00     0.209 A 
HETATM   62  N   UNL     1      20.867 -19.379   3.210  1.00  0.00    -0.255 NA
HETATM   63  C   UNL     1      19.904 -18.774   3.933  1.00  0.00     0.135 A 
HETATM   64  C   UNL     1      18.790 -19.582   3.970  1.00  0.00     0.111 A 
ENDBRANCH  43  60
ENDBRANCH  42  43
ENDBRANCH  41  42
BRANCH  41  65
HETATM   65  N   UNL     1      17.838 -23.102   5.912  1.00  0.00    -0.339 N 
HETATM   66  C   UNL     1      18.904 -22.536   6.642  1.00  0.00     0.209 A 
HETATM   67  N   UNL     1      19.896 -23.480   6.943  1.00  0.00    -0.254 NA
HETATM   68  C   UNL     1      19.481 -24.635   6.266  1.00  0.00     0.142 A 
HETATM   69  C   UNL     1      18.325 -24.432   5.630  1.00  0.00     0.026 A 
HETATM   70  C   UNL     1      17.781 -25.485   4.694  1.00  0.00     0.070 C 
ENDBRANCH  41  65
ENDBRANCH  40  41
ENDBRANCH  39  40
BRANCH  39  71
HETATM   71  N   UNL     1      14.721 -22.813   7.631  1.00  0.00    -0.343 N 
HETATM   72  C   UNL     1      15.048 -23.676   8.623  1.00  0.00     0.111 A 
HETATM   73  C   UNL     1      14.439 -24.885   8.377  1.00  0.00     0.135 A 
HETATM   74  N   UNL     1      13.751 -24.804   7.227  1.00  0.00    -0.255 NA
HETATM   75  C   UNL     1      13.951 -23.546   6.794  1.00  0.00     0.209 A 
ENDBRANCH  39  71
ENDBRANCH  38  39
ENDBRANCH  37  38
ENDBRANCH  27  37
ENDBRANCH  21  22
ENDBRANCH  11  21
BRANCH  12  76
HETATM   76  O   UNL     1      15.964 -20.776  10.974  1.00  0.00    -0.390 OA
HETATM   77  H   UNL     1      16.701 -20.707  10.316  1.00  0.00     0.210 HD
ENDBRANCH  12  76
BRANCH  13  78
HETATM   78  O   UNL     1      16.919 -18.268  11.628  1.00  0.00    -0.388 OA
HETATM   79  H   UNL     1      17.132 -17.357  11.371  1.00  0.00     0.210 HD
ENDBRANCH  13  78
ENDBRANCH   7   8
ENDBRANCH   1   7
BRANCH   2  80
HETATM   80  C   UNL     1      13.855 -14.646  14.487  1.00  0.00     0.203 C 
BRANCH  80  81
HETATM   81  O   UNL     1      12.720 -14.338  15.276  1.00  0.00    -0.379 OA
BRANCH  81  82
HETATM   82  C   UNL     1      12.892 -13.126  15.976  1.00  0.00     0.281 C 
BRANCH  82  83
HETATM   83  C   UNL     1      12.768 -13.404  17.443  1.00  0.00     0.313 C 
HETATM   84  O   UNL     1      13.103 -12.555  18.254  1.00  0.00    -0.260 OA
BRANCH  83  85
HETATM   85  O   UNL     1      12.289 -14.586  17.879  1.00  0.00    -0.148 OA
HETATM   86 Na   UNL     1      10.420 -14.768  18.607  1.00  0.00     0.000 Na
ENDBRANCH  83  85
ENDBRANCH  82  83
ENDBRANCH  81  82
ENDBRANCH  80  81
ENDBRANCH   2  80
BRANCH   3  87
HETATM   87  O   UNL     1      18.088 -16.463  13.818  1.00  0.00    -0.390 OA
HETATM   88  H   UNL     1      17.940 -17.444  13.845  1.00  0.00     0.210 HD
ENDBRANCH   3  87
BRANCH   4  89
HETATM   89  O   UNL     1      17.229 -17.502  16.420  1.00  0.00    -0.376 OA
BRANCH  89  90
HETATM   90  C   UNL     1      18.268 -17.882  17.402  1.00  0.00     0.194 C 
BRANCH  90  91
HETATM   91  C   UNL     1      17.900 -19.135  18.298  1.00  0.00     0.116 C 
BRANCH  91  92
HETATM   92  N   UNL     1      17.713 -18.762  19.723  1.00  0.00    -0.343 N 
HETATM   93  C   UNL     1      18.645 -18.700  20.700  1.00  0.00     0.111 A 
HETATM   94  C   UNL     1      18.030 -18.331  21.872  1.00  0.00     0.135 A 
HETATM   95  N   UNL     1      16.714 -18.175  21.650  1.00  0.00    -0.255 NA
HETATM   96  C   UNL     1      16.549 -18.448  20.340  1.00  0.00     0.209 A 
ENDBRANCH  91  92
BRANCH  91  97
HETATM   97  C   UNL     1      16.725 -19.974  17.654  1.00  0.00     0.053 C 
BRANCH  97  98
HETATM   98  C   UNL     1      16.872 -21.505  17.271  1.00  0.00     0.094 C 
BRANCH  98  99
HETATM   99  C   UNL     1      18.309 -21.972  16.825  1.00  0.00     0.051 C 
BRANCH  99 100
HETATM  100  C   UNL     1      18.621 -21.948  15.292  1.00  0.00     0.094 C 
BRANCH 100 101
HETATM  101  N   UNL     1      19.328 -20.716  14.894  1.00  0.00    -0.345 N 
HETATM  102  C   UNL     1      20.414 -20.182  15.488  1.00  0.00     0.111 A 
HETATM  103  C   UNL     1      20.734 -19.017  14.831  1.00  0.00     0.135 A 
HETATM  104  N   UNL     1      19.849 -18.811  13.837  1.00  0.00    -0.255 NA
HETATM  105  C   UNL     1      19.003 -19.858  13.905  1.00  0.00     0.209 A 
ENDBRANCH 100 101
BRANCH 100 106
HETATM  106  C   UNL     1      17.348 -22.096  14.388  1.00  0.00     0.051 C 
BRANCH 106 107
HETATM  107  C   UNL     1      17.235 -23.534  13.811  1.00  0.00     0.094 C 
BRANCH 107 108
HETATM  108  C   UNL     1      16.063 -23.801  12.809  1.00  0.00     0.051 C 
BRANCH 108 109
HETATM  109  C   UNL     1      15.514 -25.247  12.608  1.00  0.00     0.089 C 
HETATM  110  C   UNL     1      16.277 -25.930  11.460  1.00  0.00     0.033 C 
BRANCH 109 111
HETATM  111  N   UNL     1      15.570 -26.108  13.777  1.00  0.00    -0.334 N 
HETATM  112  C   UNL     1      16.344 -27.263  14.001  1.00  0.00     0.082 A 
HETATM  113  C   UNL     1      16.035 -27.689  15.223  1.00  0.00     0.150 A 
HETATM  114  N   UNL     1      15.064 -26.845  15.810  1.00  0.00    -0.254 NA
HETATM  115  C   UNL     1      14.809 -25.938  14.949  1.00  0.00     0.210 A 
ENDBRANCH 109 111
ENDBRANCH 108 109
ENDBRANCH 107 108
BRANCH 107 116
HETATM  116  N   UNL     1      18.519 -24.006  13.294  1.00  0.00    -0.339 N 
HETATM  117  C   UNL     1      19.138 -23.594  12.097  1.00  0.00     0.209 A 
HETATM  118  N   UNL     1      20.393 -24.212  11.956  1.00  0.00    -0.254 NA
HETATM  119  C   UNL     1      20.524 -25.009  13.114  1.00  0.00     0.142 A 
HETATM  120  C   UNL     1      19.449 -24.894  13.896  1.00  0.00     0.026 A 
HETATM  121  C   UNL     1      19.298 -25.613  15.206  1.00  0.00     0.070 C 
ENDBRANCH 107 116
ENDBRANCH 106 107
ENDBRANCH 100 106
ENDBRANCH  99 100
ENDBRANCH  98  99
BRANCH  98 122
HETATM  122  N   UNL     1      16.062 -22.501  18.008  1.00  0.00    -0.339 N 
HETATM  123  C   UNL     1      14.914 -22.452  18.861  1.00  0.00     0.026 A 
HETATM  124  C   UNL     1      14.533 -23.684  19.203  1.00  0.00     0.142 A 
HETATM  125  C   UNL     1      14.135 -21.278  19.322  1.00  0.00     0.070 C 
HETATM  126  N   UNL     1      15.330 -24.650  18.571  1.00  0.00    -0.254 NA
HETATM  127  C   UNL     1      16.225 -23.894  17.799  1.00  0.00     0.209 A 
ENDBRANCH  98 122
ENDBRANCH  97  98
ENDBRANCH  91  97
ENDBRANCH  90  91
ENDBRANCH  89  90
ENDBRANCH   4  89
BRANCH   5 128
HETATM  128  O   UNL     1      16.061 -15.005  18.030  1.00  0.00    -0.348 OA
BRANCH 128 129
HETATM  129  C   UNL     1      17.391 -14.548  18.354  1.00  0.00     0.187 C 
HETATM  130  C   UNL     1      17.455 -13.023  18.656  1.00  0.00     0.180 C 
HETATM  131  O   UNL     1      18.814 -12.598  18.728  1.00  0.00    -0.348 OA
HETATM  132  C   UNL     1      16.756 -12.202  17.565  1.00  0.00     0.203 C 
HETATM  133  C   UNL     1      19.549 -13.241  19.762  1.00  0.00     0.292 C 
HETATM  134  O   UNL     1      19.204 -12.680  21.029  1.00  0.00    -0.348 OA
HETATM  135  C   UNL     1      19.437 -14.793  19.711  1.00  0.00     0.204 C 
HETATM  136  C   UNL     1      20.257 -11.871  21.567  1.00  0.00     0.187 C 
HETATM  137  C   UNL     1      19.704 -10.521  22.147  1.00  0.00     0.176 C 
HETATM  138  C   UNL     1      21.001 -12.606  22.695  1.00  0.00     0.180 C 
HETATM  139  O   UNL     1      20.592  -9.862  23.066  1.00  0.00    -0.378 OA
HETATM  140  C   UNL     1      19.288  -9.557  21.014  1.00  0.00     0.203 C 
HETATM  141  C   UNL     1      21.944 -10.218  22.869  1.00  0.00     0.202 C 
HETATM  142  C   UNL     1      22.188 -11.717  23.187  1.00  0.00     0.173 C 
HETATM  143  O   UNL     1      18.940  -8.259  21.465  1.00  0.00    -0.379 OA
HETATM  144  C   UNL     1      17.868  -8.277  22.383  1.00  0.00     0.280 C 
HETATM  145  C   UNL     1      17.205  -6.934  22.378  1.00  0.00     0.308 C 
HETATM  146  O   UNL     1      17.858  -5.929  22.611  1.00  0.00    -0.261 OA
HETATM  147  O   UNL     1      15.886  -6.827  22.132  1.00  0.00    -0.158 OA
HETATM  148 Na   UNL     1      14.756  -8.478  21.896  1.00  0.00    -0.020 Na
HETATM  149 Na   UNL     1      13.068  -9.440  20.067  1.00  0.00     0.080 Na
HETATM  150  O   UNL     1      14.554  -8.322  19.287  1.00  0.00    -0.180 OA
HETATM  151  C   UNL     1      15.596  -8.912  18.670  1.00  0.00     0.302 C 
HETATM  152  C   UNL     1      15.634 -10.406  18.550  1.00  0.00     0.280 C 
HETATM  153  O   UNL     1      16.492  -8.222  18.209  1.00  0.00    -0.261 OA
HETATM  154  O   UNL     1      16.803 -10.816  17.859  1.00  0.00    -0.379 OA
HETATM  155  C   UNL     1      17.982 -15.287  19.565  1.00  0.00     0.183 C 
BRANCH 142 156
HETATM  156  O   UNL     1      22.484 -11.950  24.604  1.00  0.00    -0.391 OA
HETATM  157  H   UNL     1      23.021 -12.752  24.695  1.00  0.00     0.210 HD
ENDBRANCH 142 156
BRANCH 138 158
HETATM  158  O   UNL     1      20.103 -12.955  23.726  1.00  0.00    -0.390 OA
HETATM  159  H   UNL     1      20.143 -13.932  23.882  1.00  0.00     0.210 HD
ENDBRANCH 138 158
BRANCH 135 160
HETATM  160  O   UNL     1      20.130 -15.416  20.838  1.00  0.00    -0.388 OA
HETATM  161  H   UNL     1      21.062 -15.149  20.833  1.00  0.00     0.210 HD
ENDBRANCH 135 160
BRANCH 155 162
HETATM  162  O   UNL     1      17.246 -15.022  20.732  1.00  0.00    -0.390 OA
HETATM  163  H   UNL     1      17.861 -14.557  21.356  1.00  0.00     0.210 HD
ENDBRANCH 155 162
ENDBRANCH 128 129
ENDBRANCH   5 128
TORSDOF 61
ENDMDL
