MODEL 1
REMARK VINA RESULT:      -7.9      0.000      0.000
REMARK WARNING: 32 MAX_TORS EXCEEDED!!!
REMARK  40 active torsions:
REMARK  status: ('A' for Active; 'I' for Inactive)
REMARK    1  A    between atoms: C_1  and  O_44 
REMARK    2  A    between atoms: C_2  and  C_6 
REMARK    3  A    between atoms: C_3  and  O_10 
REMARK    4  A    between atoms: C_4  and  N_12 
REMARK    5  A    between atoms: C_5  and  O_14 
REMARK    6  A    between atoms: C_6  and  O_7 
REMARK    7  A    between atoms: O_14  and  C_27 
REMARK    8  A    between atoms: O_16  and  C_21 
REMARK    9  A    between atoms: C_18  and  C_33 
REMARK   10  A    between atoms: O_20  and  C_33 
REMARK   11  A    between atoms: O_22  and  C_30 
REMARK   12  A    between atoms: O_22  and  C_70 
REMARK   13  A    between atoms: O_23  and  C_24 
REMARK   14  A    between atoms: C_24  and  C_28 
REMARK       I    between atoms: N_29  and  C_32 
REMARK   15  A    between atoms: N_29  and  C_35 
REMARK   16  A    between atoms: C_31  and  C_32 
REMARK   17  A    between atoms: O_38  and  C_43 
REMARK   18  A    between atoms: C_40  and  C_55 
REMARK   19  A    between atoms: O_42  and  C_55 
REMARK   20  A    between atoms: O_44  and  C_52 
REMARK   21  A    between atoms: O_45  and  C_46 
REMARK   22  A    between atoms: C_46  and  C_50 
REMARK   23  A    between atoms: C_49  and  O_87 
REMARK       I    between atoms: N_51  and  C_54 
REMARK   24  A    between atoms: N_51  and  C_57 
REMARK   25  A    between atoms: C_53  and  C_54 
REMARK   26  A    between atoms: O_60  and  C_65 
REMARK   27  A    between atoms: C_62  and  C_76 
REMARK   28  A    between atoms: O_64  and  C_76 
REMARK   29  A    between atoms: O_66  and  C_67 
REMARK   30  A    between atoms: C_67  and  C_71 
REMARK       I    between atoms: N_72  and  C_75 
REMARK   31  A    between atoms: N_72  and  C_78 
REMARK   32  A    between atoms: C_74  and  C_75 
REMARK   33  A    between atoms: O_81  and  C_86 
REMARK   34  A    between atoms: C_83  and  C_98 
REMARK   35  A    between atoms: O_85  and  C_98 
REMARK   36  A    between atoms: O_87  and  C_95 
REMARK   37  A    between atoms: O_88  and  C_89 
REMARK   38  A    between atoms: C_89  and  C_93 
REMARK       I    between atoms: N_94  and  C_97 
REMARK   39  A    between atoms: N_94  and  C_100 
REMARK   40  A    between atoms: C_96  and  C_97 
ROOT
HETATM    1  C   UNL     1      15.434 -20.021  10.990  1.00  0.00     0.186 C 
HETATM    2  C   UNL     1      16.519 -19.114  11.620  1.00  0.00     0.179 C 
HETATM    3  C   UNL     1      14.086 -19.816  11.712  1.00  0.00     0.187 C 
HETATM    4  C   UNL     1      14.308 -19.998  13.231  1.00  0.00     0.303 C 
HETATM    5  C   UNL     1      15.338 -18.934  13.751  1.00  0.00     0.296 C 
HETATM    6  O   UNL     1      16.011 -18.267  12.676  1.00  0.00    -0.349 OA
ENDROOT
BRANCH   1   7
HETATM    7  O   UNL     1      15.291 -19.720   9.592  1.00  0.00    -0.348 OA
BRANCH   7   8
HETATM    8  C   UNL     1      15.574 -20.798   8.690  1.00  0.00     0.286 C 
HETATM    9  O   UNL     1      16.696 -20.394   7.897  1.00  0.00    -0.349 OA
HETATM   10  C   UNL     1      17.153 -21.369   6.940  1.00  0.00     0.180 C 
HETATM   11  C   UNL     1      16.029 -21.910   6.028  1.00  0.00     0.186 C 
HETATM   12  C   UNL     1      14.713 -21.160   6.299  1.00  0.00     0.177 C 
HETATM   13  C   UNL     1      14.346 -21.137   7.790  1.00  0.00     0.171 C 
BRANCH  10  14
HETATM   14  C   UNL     1      17.913 -22.503   7.646  1.00  0.00     0.198 C 
BRANCH  14  15
HETATM   15  O   UNL     1      17.240 -23.749   7.487  1.00  0.00    -0.398 OA
HETATM   16  H   UNL     1      16.326 -23.642   7.815  1.00  0.00     0.209 HD
ENDBRANCH  14  15
ENDBRANCH  10  14
BRANCH  11  17
HETATM   17  O   UNL     1      16.411 -21.668   4.665  1.00  0.00    -0.348 OA
BRANCH  17  18
HETATM   18  C   UNL     1      15.529 -22.147   3.645  1.00  0.00     0.286 C 
HETATM   19  O   UNL     1      15.671 -23.562   3.612  1.00  0.00    -0.352 OA
HETATM   20  C   UNL     1      14.808 -24.236   2.678  1.00  0.00     0.150 C 
HETATM   21  C   UNL     1      14.488 -23.416   1.423  1.00  0.00     0.068 C 
HETATM   22  C   UNL     1      15.627 -22.468   1.092  1.00  0.00     0.148 C 
HETATM   23  C   UNL     1      15.864 -21.497   2.268  1.00  0.00     0.168 C 
BRANCH  20  24
HETATM   24  C   UNL     1      13.531 -24.675   3.407  1.00  0.00     0.196 C 
BRANCH  24  25
HETATM   25  O   UNL     1      13.788 -25.832   4.196  1.00  0.00    -0.398 OA
HETATM   26  H   UNL     1      13.339 -26.576   3.748  1.00  0.00     0.209 HD
ENDBRANCH  24  25
ENDBRANCH  20  24
BRANCH  22  27
HETATM   27  O   UNL     1      16.793 -23.247   0.808  1.00  0.00    -0.393 OA
HETATM   28  H   UNL     1      16.626 -24.130   1.190  1.00  0.00     0.210 HD
ENDBRANCH  22  27
BRANCH  23  29
HETATM   29  N   UNL     1      17.206 -20.900   2.215  1.00  0.00    -0.346 N 
HETATM   30  C   UNL     1      17.388 -19.685   1.603  1.00  0.00     0.241 C 
HETATM   31  O   UNL     1      16.560 -19.177   0.857  1.00  0.00    -0.269 OA
HETATM   32  H   UNL     1      17.870 -21.230   2.913  1.00  0.00     0.163 HD
BRANCH  30  33
HETATM   33  C   UNL     1      18.615 -18.986   2.034  1.00  0.00     0.080 C 
HETATM   34  C   UNL     1      19.564 -18.754   1.118  1.00  0.00     0.086 C 
BRANCH  34  35
HETATM   35  C   UNL     1      20.719 -17.930   1.472  1.00  0.00     0.165 C 
HETATM   36  O   UNL     1      21.737 -17.775   0.826  1.00  0.00    -0.647 OA
BRANCH  35  37
HETATM   37  O   UNL     1      20.530 -17.361   2.672  1.00  0.00    -0.773 OA
HETATM   38  H   UNL     1      19.557 -17.290   2.757  1.00  0.00     0.167 HD
ENDBRANCH  35  37
ENDBRANCH  34  35
ENDBRANCH  30  33
ENDBRANCH  23  29
ENDBRANCH  17  18
ENDBRANCH  11  17
BRANCH  12  39
HETATM   39  O   UNL     1      14.759 -19.823   5.764  1.00  0.00    -0.391 OA
HETATM   40  H   UNL     1      15.551 -19.760   5.195  1.00  0.00     0.210 HD
ENDBRANCH  12  39
BRANCH  13  41
HETATM   41  N   UNL     1      13.196 -20.256   7.989  1.00  0.00    -0.346 N 
HETATM   42  C   UNL     1      11.915 -20.728   8.035  1.00  0.00     0.241 C 
HETATM   43  O   UNL     1      11.612 -21.889   7.787  1.00  0.00    -0.269 OA
HETATM   44  H   UNL     1      13.399 -19.312   8.297  1.00  0.00     0.163 HD
BRANCH  42  45
HETATM   45  C   UNL     1      10.933 -19.698   8.428  1.00  0.00     0.080 C 
HETATM   46  C   UNL     1       9.726 -19.687   7.849  1.00  0.00     0.086 C 
BRANCH  46  47
HETATM   47  C   UNL     1       8.744 -18.692   8.278  1.00  0.00     0.165 C 
HETATM   48  O   UNL     1       8.582 -18.251   9.400  1.00  0.00    -0.647 OA
BRANCH  47  49
HETATM   49  O   UNL     1       8.006 -18.284   7.235  1.00  0.00    -0.773 OA
HETATM   50  H   UNL     1       7.605 -19.108   6.891  1.00  0.00     0.167 HD
ENDBRANCH  47  49
ENDBRANCH  46  47
ENDBRANCH  42  45
ENDBRANCH  13  41
ENDBRANCH   7   8
ENDBRANCH   1   7
BRANCH   2  51
HETATM   51  C   UNL     1      17.712 -19.935  12.135  1.00  0.00     0.198 C 
BRANCH  51  52
HETATM   52  O   UNL     1      18.765 -19.081  12.572  1.00  0.00    -0.398 OA
HETATM   53  H   UNL     1      18.725 -19.027  13.546  1.00  0.00     0.209 HD
ENDBRANCH  51  52
ENDBRANCH   2  51
BRANCH   3  54
HETATM   54  O   UNL     1      13.507 -18.532  11.429  1.00  0.00    -0.391 OA
HETATM   55  H   UNL     1      12.784 -18.666  10.786  1.00  0.00     0.210 HD
ENDBRANCH   3  54
BRANCH   4  56
HETATM   56  N   UNL     1      13.015 -20.044  13.936  1.00  0.00     0.090 N 
HETATM   57  H   UNL     1      12.495 -20.885  13.712  1.00  0.00     0.313 HD
HETATM   58  H   UNL     1      13.208 -20.064  14.943  1.00  0.00     0.313 HD
ENDBRANCH   4  56
BRANCH   5  59
HETATM   59  O   UNL     1      14.676 -17.914  14.524  1.00  0.00    -0.348 OA
BRANCH  59  60
HETATM   60  C   UNL     1      15.443 -16.711  14.722  1.00  0.00     0.186 C 
HETATM   61  C   UNL     1      14.571 -15.431  14.622  1.00  0.00     0.179 C 
HETATM   62  O   UNL     1      14.673 -14.535  15.748  1.00  0.00    -0.349 OA
HETATM   63  C   UNL     1      15.983 -14.239  16.245  1.00  0.00     0.281 C 
HETATM   64  C   UNL     1      16.907 -15.491  16.310  1.00  0.00     0.149 C 
HETATM   65  C   UNL     1      16.124 -16.800  16.101  1.00  0.00     0.172 C 
BRANCH  61  66
HETATM   66  C   UNL     1      14.880 -14.637  13.343  1.00  0.00     0.198 C 
BRANCH  66  67
HETATM   67  O   UNL     1      14.847 -13.238  13.597  1.00  0.00    -0.398 OA
HETATM   68  H   UNL     1      14.246 -13.085  14.353  1.00  0.00     0.209 HD
ENDBRANCH  66  67
ENDBRANCH  61  66
BRANCH  63  69
HETATM   69  O   UNL     1      15.845 -13.610  17.518  1.00  0.00    -0.349 OA
BRANCH  69  70
HETATM   70  C   UNL     1      15.308 -12.280  17.504  1.00  0.00     0.186 C 
HETATM   71  C   UNL     1      13.807 -12.255  17.886  1.00  0.00     0.176 C 
HETATM   72  O   UNL     1      13.459 -11.091  18.684  1.00  0.00    -0.379 OA
HETATM   73  C   UNL     1      14.093  -9.883  18.245  1.00  0.00     0.196 C 
HETATM   74  C   UNL     1      15.620  -9.951  18.425  1.00  0.00     0.139 C 
HETATM   75  C   UNL     1      16.090 -11.415  18.522  1.00  0.00     0.174 C 
BRANCH  71  76
HETATM   76  C   UNL     1      12.864 -12.301  16.676  1.00  0.00     0.198 C 
BRANCH  76  77
HETATM   77  O   UNL     1      12.114 -13.515  16.690  1.00  0.00    -0.398 OA
HETATM   78  H   UNL     1      12.625 -14.151  17.228  1.00  0.00     0.209 HD
ENDBRANCH  76  77
ENDBRANCH  71  76
BRANCH  74  79
HETATM   79  N   UNL     1      16.046  -9.190  19.601  1.00  0.00    -0.348 N 
HETATM   80  C   UNL     1      16.554  -7.924  19.509  1.00  0.00     0.241 C 
HETATM   81  O   UNL     1      16.720  -7.323  18.455  1.00  0.00    -0.269 OA
HETATM   82  H   UNL     1      16.096  -9.698  20.477  1.00  0.00     0.163 HD
BRANCH  80  83
HETATM   83  C   UNL     1      16.855  -7.320  20.825  1.00  0.00     0.080 C 
HETATM   84  C   UNL     1      16.403  -6.088  21.096  1.00  0.00     0.086 C 
BRANCH  84  85
HETATM   85  C   UNL     1      16.605  -5.533  22.435  1.00  0.00     0.165 C 
HETATM   86  O   UNL     1      16.390  -6.083  23.497  1.00  0.00    -0.647 OA
BRANCH  85  87
HETATM   87  O   UNL     1      17.061  -4.274  22.354  1.00  0.00    -0.773 OA
HETATM   88  H   UNL     1      16.541  -3.785  23.025  1.00  0.00     0.167 HD
ENDBRANCH  85  87
ENDBRANCH  84  85
ENDBRANCH  80  83
ENDBRANCH  74  79
BRANCH  75  89
HETATM   89  O   UNL     1      15.917 -11.893  19.869  1.00  0.00    -0.391 OA
HETATM   90  H   UNL     1      16.155 -11.173  20.481  1.00  0.00     0.210 HD
ENDBRANCH  75  89
ENDBRANCH  69  70
ENDBRANCH  63  69
BRANCH  64  91
HETATM   91  N   UNL     1      17.961 -15.533  17.338  1.00  0.00    -0.247 NA
HETATM   92  C   UNL     1      19.283 -15.685  17.012  1.00  0.00     0.221 C 
HETATM   93  O   UNL     1      20.038 -14.725  17.138  1.00  0.00    -0.275 OA
HETATM   94  H   UNL     1      17.944 -14.661  17.855  1.00  0.00     0.131 HD
BRANCH  92  95
HETATM   95  C   UNL     1      19.771 -17.061  16.841  1.00  0.00     0.074 C 
HETATM   96  C   UNL     1      20.418 -17.289  15.688  1.00  0.00     0.086 C 
BRANCH  96  97
HETATM   97  C   UNL     1      21.055 -18.573  15.401  1.00  0.00     0.165 C 
HETATM   98  O   UNL     1      20.779 -19.369  14.523  1.00  0.00    -0.647 OA
BRANCH  97  99
HETATM   99  O   UNL     1      22.032 -18.801  16.293  1.00  0.00    -0.773 OA
HETATM  100  H   UNL     1      22.757 -19.184  15.757  1.00  0.00     0.167 HD
ENDBRANCH  97  99
ENDBRANCH  96  97
ENDBRANCH  92  95
ENDBRANCH  64  91
BRANCH  65 101
HETATM  101  O   UNL     1      15.173 -17.022  17.139  1.00  0.00    -0.391 OA
HETATM  102  H   UNL     1      14.987 -17.981  17.156  1.00  0.00     0.210 HD
ENDBRANCH  65 101
ENDBRANCH  59  60
ENDBRANCH   5  59
TORSDOF 40
ENDMDL
MODEL 2
REMARK VINA RESULT:      -7.6      4.455     16.059
REMARK WARNING: 32 MAX_TORS EXCEEDED!!!
REMARK  40 active torsions:
REMARK  status: ('A' for Active; 'I' for Inactive)
REMARK    1  A    between atoms: C_1  and  O_44 
REMARK    2  A    between atoms: C_2  and  C_6 
REMARK    3  A    between atoms: C_3  and  O_10 
REMARK    4  A    between atoms: C_4  and  N_12 
REMARK    5  A    between atoms: C_5  and  O_14 
REMARK    6  A    between atoms: C_6  and  O_7 
REMARK    7  A    between atoms: O_14  and  C_27 
REMARK    8  A    between atoms: O_16  and  C_21 
REMARK    9  A    between atoms: C_18  and  C_33 
REMARK   10  A    between atoms: O_20  and  C_33 
REMARK   11  A    between atoms: O_22  and  C_30 
REMARK   12  A    between atoms: O_22  and  C_70 
REMARK   13  A    between atoms: O_23  and  C_24 
REMARK   14  A    between atoms: C_24  and  C_28 
REMARK       I    between atoms: N_29  and  C_32 
REMARK   15  A    between atoms: N_29  and  C_35 
REMARK   16  A    between atoms: C_31  and  C_32 
REMARK   17  A    between atoms: O_38  and  C_43 
REMARK   18  A    between atoms: C_40  and  C_55 
REMARK   19  A    between atoms: O_42  and  C_55 
REMARK   20  A    between atoms: O_44  and  C_52 
REMARK   21  A    between atoms: O_45  and  C_46 
REMARK   22  A    between atoms: C_46  and  C_50 
REMARK   23  A    between atoms: C_49  and  O_87 
REMARK       I    between atoms: N_51  and  C_54 
REMARK   24  A    between atoms: N_51  and  C_57 
REMARK   25  A    between atoms: C_53  and  C_54 
REMARK   26  A    between atoms: O_60  and  C_65 
REMARK   27  A    between atoms: C_62  and  C_76 
REMARK   28  A    between atoms: O_64  and  C_76 
REMARK   29  A    between atoms: O_66  and  C_67 
REMARK   30  A    between atoms: C_67  and  C_71 
REMARK       I    between atoms: N_72  and  C_75 
REMARK   31  A    between atoms: N_72  and  C_78 
REMARK   32  A    between atoms: C_74  and  C_75 
REMARK   33  A    between atoms: O_81  and  C_86 
REMARK   34  A    between atoms: C_83  and  C_98 
REMARK   35  A    between atoms: O_85  and  C_98 
REMARK   36  A    between atoms: O_87  and  C_95 
REMARK   37  A    between atoms: O_88  and  C_89 
REMARK   38  A    between atoms: C_89  and  C_93 
REMARK       I    between atoms: N_94  and  C_97 
REMARK   39  A    between atoms: N_94  and  C_100 
REMARK   40  A    between atoms: C_96  and  C_97 
ROOT
HETATM    1  C   UNL     1      18.614 -15.006  17.730  1.00  0.00     0.186 C 
HETATM    2  C   UNL     1      17.994 -16.424  17.691  1.00  0.00     0.179 C 
HETATM    3  C   UNL     1      18.529 -14.351  16.336  1.00  0.00     0.187 C 
HETATM    4  C   UNL     1      19.142 -15.319  15.298  1.00  0.00     0.303 C 
HETATM    5  C   UNL     1      18.337 -16.666  15.285  1.00  0.00     0.296 C 
HETATM    6  O   UNL     1      17.443 -16.770  16.400  1.00  0.00    -0.349 OA
ENDROOT
BRANCH   1   7
HETATM    7  O   UNL     1      17.926 -14.194  18.695  1.00  0.00    -0.348 OA
BRANCH   7   8
HETATM    8  C   UNL     1      18.568 -12.960  19.042  1.00  0.00     0.286 C 
HETATM    9  O   UNL     1      19.021 -13.092  20.395  1.00  0.00    -0.349 OA
HETATM   10  C   UNL     1      19.726 -11.949  20.920  1.00  0.00     0.180 C 
HETATM   11  C   UNL     1      18.957 -10.620  20.746  1.00  0.00     0.186 C 
HETATM   12  C   UNL     1      17.559 -10.882  20.162  1.00  0.00     0.177 C 
HETATM   13  C   UNL     1      17.605 -11.743  18.891  1.00  0.00     0.171 C 
BRANCH  10  14
HETATM   14  C   UNL     1      21.143 -11.872  20.330  1.00  0.00     0.198 C 
BRANCH  14  15
HETATM   15  O   UNL     1      21.545 -10.520  20.135  1.00  0.00    -0.398 OA
HETATM   16  H   UNL     1      22.024 -10.229  20.935  1.00  0.00     0.209 HD
ENDBRANCH  14  15
ENDBRANCH  10  14
BRANCH  11  17
HETATM   17  O   UNL     1      18.797 -10.030  22.046  1.00  0.00    -0.348 OA
BRANCH  17  18
HETATM   18  C   UNL     1      19.567  -8.857  22.329  1.00  0.00     0.286 C 
HETATM   19  O   UNL     1      20.061  -9.002  23.656  1.00  0.00    -0.352 OA
HETATM   20  C   UNL     1      20.918  -7.935  24.103  1.00  0.00     0.150 C 
HETATM   21  C   UNL     1      20.575  -6.568  23.503  1.00  0.00     0.068 C 
HETATM   22  C   UNL     1      19.093  -6.475  23.184  1.00  0.00     0.148 C 
HETATM   23  C   UNL     1      18.701  -7.570  22.169  1.00  0.00     0.168 C 
BRANCH  20  24
HETATM   24  C   UNL     1      22.378  -8.322  23.830  1.00  0.00     0.196 C 
BRANCH  24  25
HETATM   25  O   UNL     1      23.237  -7.218  24.098  1.00  0.00    -0.398 OA
HETATM   26  H   UNL     1      23.770  -7.081  23.290  1.00  0.00     0.209 HD
ENDBRANCH  24  25
ENDBRANCH  20  24
BRANCH  22  27
HETATM   27  O   UNL     1      18.361  -6.601  24.406  1.00  0.00    -0.393 OA
HETATM   28  H   UNL     1      17.496  -6.177  24.246  1.00  0.00     0.210 HD
ENDBRANCH  22  27
BRANCH  23  29
HETATM   29  N   UNL     1      17.256  -7.833  22.187  1.00  0.00    -0.346 N 
HETATM   30  C   UNL     1      16.399  -6.979  21.537  1.00  0.00     0.241 C 
HETATM   31  O   UNL     1      16.723  -5.860  21.162  1.00  0.00    -0.269 OA
HETATM   32  H   UNL     1      16.978  -8.794  22.380  1.00  0.00     0.163 HD
BRANCH  30  33
HETATM   33  C   UNL     1      15.095  -7.589  21.212  1.00  0.00     0.080 C 
HETATM   34  C   UNL     1      14.541  -7.300  20.028  1.00  0.00     0.086 C 
BRANCH  34  35
HETATM   35  C   UNL     1      13.330  -8.006  19.609  1.00  0.00     0.165 C 
HETATM   36  O   UNL     1      13.239  -9.169  19.267  1.00  0.00    -0.647 OA
BRANCH  35  37
HETATM   37  O   UNL     1      12.282  -7.170  19.615  1.00  0.00    -0.773 OA
HETATM   38  H   UNL     1      11.514  -7.743  19.819  1.00  0.00     0.167 HD
ENDBRANCH  35  37
ENDBRANCH  34  35
ENDBRANCH  30  33
ENDBRANCH  23  29
ENDBRANCH  17  18
ENDBRANCH  11  17
BRANCH  12  39
HETATM   39  O   UNL     1      16.688 -11.473  21.147  1.00  0.00    -0.391 OA
HETATM   40  H   UNL     1      15.955 -11.910  20.668  1.00  0.00     0.210 HD
ENDBRANCH  12  39
BRANCH  13  41
HETATM   41  N   UNL     1      16.241 -12.103  18.504  1.00  0.00    -0.346 N 
HETATM   42  C   UNL     1      15.495 -11.334  17.656  1.00  0.00     0.241 C 
HETATM   43  O   UNL     1      15.848 -10.230  17.258  1.00  0.00    -0.269 OA
HETATM   44  H   UNL     1      15.945 -13.048  18.723  1.00  0.00     0.163 HD
BRANCH  42  45
HETATM   45  C   UNL     1      14.227 -11.976  17.258  1.00  0.00     0.080 C 
HETATM   46  C   UNL     1      13.950 -13.209  17.699  1.00  0.00     0.086 C 
BRANCH  46  47
HETATM   47  C   UNL     1      12.671 -13.819  17.337  1.00  0.00     0.165 C 
HETATM   48  O   UNL     1      11.974 -14.538  18.027  1.00  0.00    -0.647 OA
BRANCH  47  49
HETATM   49  O   UNL     1      12.322 -13.468  16.090  1.00  0.00    -0.773 OA
HETATM   50  H   UNL     1      12.725 -14.160  15.527  1.00  0.00     0.167 HD
ENDBRANCH  47  49
ENDBRANCH  46  47
ENDBRANCH  42  45
ENDBRANCH  13  41
ENDBRANCH   7   8
ENDBRANCH   1   7
BRANCH   2  51
HETATM   51  C   UNL     1      19.004 -17.495  18.134  1.00  0.00     0.198 C 
BRANCH  51  52
HETATM   52  O   UNL     1      18.797 -17.856  19.496  1.00  0.00    -0.398 OA
HETATM   53  H   UNL     1      19.671 -17.935  19.924  1.00  0.00     0.209 HD
ENDBRANCH  51  52
ENDBRANCH   2  51
BRANCH   3  54
HETATM   54  O   UNL     1      17.182 -14.004  15.979  1.00  0.00    -0.391 OA
HETATM   55  H   UNL     1      16.992 -14.400  15.106  1.00  0.00     0.210 HD
ENDBRANCH   3  54
BRANCH   4  56
HETATM   56  N   UNL     1      19.297 -14.645  13.997  1.00  0.00     0.090 N 
HETATM   57  H   UNL     1      20.270 -14.564  13.729  1.00  0.00     0.313 HD
HETATM   58  H   UNL     1      18.832 -15.223  13.288  1.00  0.00     0.313 HD
ENDBRANCH   4  56
BRANCH   5  59
HETATM   59  O   UNL     1      17.531 -16.771  14.095  1.00  0.00    -0.348 OA
BRANCH  59  60
HETATM   60  C   UNL     1      16.260 -17.422  14.279  1.00  0.00     0.186 C 
HETATM   61  C   UNL     1      15.207 -16.971  13.233  1.00  0.00     0.179 C 
HETATM   62  O   UNL     1      14.566 -18.043  12.510  1.00  0.00    -0.349 OA
HETATM   63  C   UNL     1      14.107 -19.170  13.265  1.00  0.00     0.281 C 
HETATM   64  C   UNL     1      15.115 -19.621  14.362  1.00  0.00     0.149 C 
HETATM   65  C   UNL     1      16.488 -18.944  14.201  1.00  0.00     0.172 C 
BRANCH  61  66
HETATM   66  C   UNL     1      14.114 -16.100  13.873  1.00  0.00     0.198 C 
BRANCH  66  67
HETATM   67  O   UNL     1      14.679 -15.180  14.799  1.00  0.00    -0.398 OA
HETATM   68  H   UNL     1      15.044 -14.430  14.290  1.00  0.00     0.209 HD
ENDBRANCH  66  67
ENDBRANCH  61  66
BRANCH  63  69
HETATM   69  O   UNL     1      13.804 -20.224  12.352  1.00  0.00    -0.349 OA
BRANCH  69  70
HETATM   70  C   UNL     1      13.219 -19.823  11.104  1.00  0.00     0.186 C 
HETATM   71  C   UNL     1      13.952 -20.445   9.890  1.00  0.00     0.176 C 
HETATM   72  O   UNL     1      13.039 -20.808   8.820  1.00  0.00    -0.379 OA
HETATM   73  C   UNL     1      12.003 -19.843   8.595  1.00  0.00     0.196 C 
HETATM   74  C   UNL     1      11.057 -19.743   9.805  1.00  0.00     0.139 C 
HETATM   75  C   UNL     1      11.741 -20.281  11.076  1.00  0.00     0.174 C 
BRANCH  71  76
HETATM   76  C   UNL     1      15.042 -19.540   9.300  1.00  0.00     0.198 C 
BRANCH  76  77
HETATM   77  O   UNL     1      15.970 -19.166  10.318  1.00  0.00    -0.398 OA
HETATM   78  H   UNL     1      16.680 -18.662   9.875  1.00  0.00     0.209 HD
ENDBRANCH  76  77
ENDBRANCH  71  76
BRANCH  74  79
HETATM   79  N   UNL     1       9.802 -20.452   9.551  1.00  0.00    -0.348 N 
HETATM   80  C   UNL     1       8.608 -19.799   9.405  1.00  0.00     0.241 C 
HETATM   81  O   UNL     1       8.472 -18.585   9.493  1.00  0.00    -0.269 OA
HETATM   82  H   UNL     1       9.823 -21.461   9.642  1.00  0.00     0.163 HD
BRANCH  80  83
HETATM   83  C   UNL     1       7.484 -20.706   9.088  1.00  0.00     0.080 C 
HETATM   84  C   UNL     1       6.558 -20.311   8.204  1.00  0.00     0.086 C 
BRANCH  84  85
HETATM   85  C   UNL     1       5.506 -21.248   7.808  1.00  0.00     0.165 C 
HETATM   86  O   UNL     1       4.307 -21.047   7.803  1.00  0.00    -0.647 OA
BRANCH  85  87
HETATM   87  O   UNL     1       6.041 -22.425   7.449  1.00  0.00    -0.773 OA
HETATM   88  H   UNL     1       6.943 -22.197   7.144  1.00  0.00     0.167 HD
ENDBRANCH  85  87
ENDBRANCH  84  85
ENDBRANCH  80  83
ENDBRANCH  74  79
BRANCH  75  89
HETATM   89  O   UNL     1      11.630 -21.716  11.117  1.00  0.00    -0.391 OA
HETATM   90  H   UNL     1      11.781 -22.060  10.217  1.00  0.00     0.210 HD
ENDBRANCH  75  89
ENDBRANCH  69  70
ENDBRANCH  63  69
BRANCH  64  91
HETATM   91  N   UNL     1      15.143 -21.043  14.748  1.00  0.00    -0.247 NA
HETATM   92  C   UNL     1      14.567 -21.489  15.907  1.00  0.00     0.221 C 
HETATM   93  O   UNL     1      13.535 -22.152  15.838  1.00  0.00    -0.275 OA
HETATM   94  H   UNL     1      14.676 -21.583  14.028  1.00  0.00     0.131 HD
BRANCH  92  95
HETATM   95  C   UNL     1      15.385 -21.421  17.126  1.00  0.00     0.074 C 
HETATM   96  C   UNL     1      15.113 -20.382  17.930  1.00  0.00     0.086 C 
BRANCH  96  97
HETATM   97  C   UNL     1      15.763 -20.219  19.228  1.00  0.00     0.165 C 
HETATM   98  O   UNL     1      16.950 -20.098  19.465  1.00  0.00    -0.647 OA
BRANCH  97  99
HETATM   99  O   UNL     1      14.837 -20.242  20.201  1.00  0.00    -0.773 OA
HETATM  100  H   UNL     1      15.062 -21.040  20.722  1.00  0.00     0.167 HD
ENDBRANCH  97  99
ENDBRANCH  96  97
ENDBRANCH  92  95
ENDBRANCH  64  91
BRANCH  65 101
HETATM  101  O   UNL     1      17.123 -19.315  12.980  1.00  0.00    -0.391 OA
HETATM  102  H   UNL     1      16.715 -20.153  12.688  1.00  0.00     0.210 HD
ENDBRANCH  65 101
ENDBRANCH  59  60
ENDBRANCH   5  59
TORSDOF 40
ENDMDL
MODEL 3
REMARK VINA RESULT:      -7.6      5.854     11.447
REMARK WARNING: 32 MAX_TORS EXCEEDED!!!
REMARK  40 active torsions:
REMARK  status: ('A' for Active; 'I' for Inactive)
REMARK    1  A    between atoms: C_1  and  O_44 
REMARK    2  A    between atoms: C_2  and  C_6 
REMARK    3  A    between atoms: C_3  and  O_10 
REMARK    4  A    between atoms: C_4  and  N_12 
REMARK    5  A    between atoms: C_5  and  O_14 
REMARK    6  A    between atoms: C_6  and  O_7 
REMARK    7  A    between atoms: O_14  and  C_27 
REMARK    8  A    between atoms: O_16  and  C_21 
REMARK    9  A    between atoms: C_18  and  C_33 
REMARK   10  A    between atoms: O_20  and  C_33 
REMARK   11  A    between atoms: O_22  and  C_30 
REMARK   12  A    between atoms: O_22  and  C_70 
REMARK   13  A    between atoms: O_23  and  C_24 
REMARK   14  A    between atoms: C_24  and  C_28 
REMARK       I    between atoms: N_29  and  C_32 
REMARK   15  A    between atoms: N_29  and  C_35 
REMARK   16  A    between atoms: C_31  and  C_32 
REMARK   17  A    between atoms: O_38  and  C_43 
REMARK   18  A    between atoms: C_40  and  C_55 
REMARK   19  A    between atoms: O_42  and  C_55 
REMARK   20  A    between atoms: O_44  and  C_52 
REMARK   21  A    between atoms: O_45  and  C_46 
REMARK   22  A    between atoms: C_46  and  C_50 
REMARK   23  A    between atoms: C_49  and  O_87 
REMARK       I    between atoms: N_51  and  C_54 
REMARK   24  A    between atoms: N_51  and  C_57 
REMARK   25  A    between atoms: C_53  and  C_54 
REMARK   26  A    between atoms: O_60  and  C_65 
REMARK   27  A    between atoms: C_62  and  C_76 
REMARK   28  A    between atoms: O_64  and  C_76 
REMARK   29  A    between atoms: O_66  and  C_67 
REMARK   30  A    between atoms: C_67  and  C_71 
REMARK       I    between atoms: N_72  and  C_75 
REMARK   31  A    between atoms: N_72  and  C_78 
REMARK   32  A    between atoms: C_74  and  C_75 
REMARK   33  A    between atoms: O_81  and  C_86 
REMARK   34  A    between atoms: C_83  and  C_98 
REMARK   35  A    between atoms: O_85  and  C_98 
REMARK   36  A    between atoms: O_87  and  C_95 
REMARK   37  A    between atoms: O_88  and  C_89 
REMARK   38  A    between atoms: C_89  and  C_93 
REMARK       I    between atoms: N_94  and  C_97 
REMARK   39  A    between atoms: N_94  and  C_100 
REMARK   40  A    between atoms: C_96  and  C_97 
ROOT
HETATM    1  C   UNL     1       8.204 -20.340   8.998  1.00  0.00     0.186 C 
HETATM    2  C   UNL     1       8.616 -20.393  10.489  1.00  0.00     0.179 C 
HETATM    3  C   UNL     1       9.280 -21.020   8.125  1.00  0.00     0.187 C 
HETATM    4  C   UNL     1      10.653 -20.394   8.460  1.00  0.00     0.303 C 
HETATM    5  C   UNL     1      10.992 -20.632   9.974  1.00  0.00     0.296 C 
HETATM    6  O   UNL     1       9.857 -21.101  10.712  1.00  0.00    -0.349 OA
ENDROOT
BRANCH   1   7
HETATM    7  O   UNL     1       6.938 -20.995   8.813  1.00  0.00    -0.348 OA
BRANCH   7   8
HETATM    8  C   UNL     1       6.361 -20.879   7.505  1.00  0.00     0.286 C 
HETATM    9  O   UNL     1       5.235 -20.002   7.624  1.00  0.00    -0.349 OA
HETATM   10  C   UNL     1       4.534 -19.735   6.393  1.00  0.00     0.180 C 
HETATM   11  C   UNL     1       4.129 -21.014   5.626  1.00  0.00     0.186 C 
HETATM   12  C   UNL     1       4.474 -22.265   6.452  1.00  0.00     0.177 C 
HETATM   13  C   UNL     1       5.932 -22.266   6.936  1.00  0.00     0.171 C 
BRANCH  10  14
HETATM   14  C   UNL     1       5.340 -18.770   5.511  1.00  0.00     0.198 C 
BRANCH  14  15
HETATM   15  O   UNL     1       4.491 -17.809   4.891  1.00  0.00    -0.398 OA
HETATM   16  H   UNL     1       4.903 -16.930   4.997  1.00  0.00     0.209 HD
ENDBRANCH  14  15
ENDBRANCH  10  14
BRANCH  11  17
HETATM   17  O   UNL     1       2.706 -20.982   5.434  1.00  0.00    -0.348 OA
BRANCH  17  18
HETATM   18  C   UNL     1       2.233 -20.732   4.107  1.00  0.00     0.286 C 
HETATM   19  O   UNL     1       2.617 -19.402   3.779  1.00  0.00    -0.352 OA
HETATM   20  C   UNL     1       2.277 -18.986   2.444  1.00  0.00     0.150 C 
HETATM   21  C   UNL     1       0.995 -19.624   1.899  1.00  0.00     0.068 C 
HETATM   22  C   UNL     1       0.031 -19.946   3.028  1.00  0.00     0.148 C 
HETATM   23  C   UNL     1       0.688 -20.929   4.020  1.00  0.00     0.168 C 
BRANCH  20  24
HETATM   24  C   UNL     1       3.475 -19.247   1.520  1.00  0.00     0.196 C 
BRANCH  24  25
HETATM   25  O   UNL     1       4.574 -18.421   1.894  1.00  0.00    -0.398 OA
HETATM   26  H   UNL     1       5.256 -18.542   1.204  1.00  0.00     0.209 HD
ENDBRANCH  24  25
ENDBRANCH  20  24
BRANCH  22  27
HETATM   27  O   UNL     1      -0.340 -18.721   3.666  1.00  0.00    -0.393 OA
HETATM   28  H   UNL     1      -0.824 -18.975   4.474  1.00  0.00     0.210 HD
ENDBRANCH  22  27
BRANCH  23  29
HETATM   29  N   UNL     1       0.022 -20.904   5.329  1.00  0.00    -0.346 N 
HETATM   30  C   UNL     1      -1.293 -21.287   5.432  1.00  0.00     0.241 C 
HETATM   31  O   UNL     1      -2.038 -21.396   4.468  1.00  0.00    -0.269 OA
HETATM   32  H   UNL     1       0.633 -20.935   6.143  1.00  0.00     0.163 HD
BRANCH  30  33
HETATM   33  C   UNL     1      -1.684 -21.684   6.799  1.00  0.00     0.080 C 
HETATM   34  C   UNL     1      -2.910 -22.191   6.982  1.00  0.00     0.086 C 
BRANCH  34  35
HETATM   35  C   UNL     1      -3.274 -22.739   8.288  1.00  0.00     0.165 C 
HETATM   36  O   UNL     1      -3.576 -23.887   8.545  1.00  0.00    -0.647 OA
BRANCH  35  37
HETATM   37  O   UNL     1      -3.268 -21.768   9.214  1.00  0.00    -0.773 OA
HETATM   38  H   UNL     1      -2.893 -20.991   8.750  1.00  0.00     0.167 HD
ENDBRANCH  35  37
ENDBRANCH  34  35
ENDBRANCH  30  33
ENDBRANCH  23  29
ENDBRANCH  17  18
ENDBRANCH  11  17
BRANCH  12  39
HETATM   39  O   UNL     1       3.569 -22.420   7.563  1.00  0.00    -0.391 OA
HETATM   40  H   UNL     1       2.660 -22.309   7.219  1.00  0.00     0.210 HD
ENDBRANCH  12  39
BRANCH  13  41
HETATM   41  N   UNL     1       6.131 -23.381   7.862  1.00  0.00    -0.346 N 
HETATM   42  C   UNL     1       6.571 -24.606   7.445  1.00  0.00     0.241 C 
HETATM   43  O   UNL     1       6.707 -24.910   6.266  1.00  0.00    -0.269 OA
HETATM   44  H   UNL     1       6.130 -23.153   8.849  1.00  0.00     0.163 HD
BRANCH  42  45
HETATM   45  C   UNL     1       6.878 -25.520   8.563  1.00  0.00     0.080 C 
HETATM   46  C   UNL     1       8.155 -25.741   8.897  1.00  0.00     0.086 C 
BRANCH  46  47
HETATM   47  C   UNL     1       8.449 -26.612  10.034  1.00  0.00     0.165 C 
HETATM   48  O   UNL     1       9.148 -26.359  10.997  1.00  0.00    -0.647 OA
BRANCH  47  49
HETATM   49  O   UNL     1       7.814 -27.786   9.900  1.00  0.00    -0.773 OA
HETATM   50  H   UNL     1       8.538 -28.445   9.880  1.00  0.00     0.167 HD
ENDBRANCH  47  49
ENDBRANCH  46  47
ENDBRANCH  42  45
ENDBRANCH  13  41
ENDBRANCH   7   8
ENDBRANCH   1   7
BRANCH   2  51
HETATM   51  C   UNL     1       8.697 -18.987  11.103  1.00  0.00     0.198 C 
BRANCH  51  52
HETATM   52  O   UNL     1       8.314 -17.996  10.155  1.00  0.00    -0.398 OA
HETATM   53  H   UNL     1       8.413 -18.379   9.262  1.00  0.00     0.209 HD
ENDBRANCH  51  52
ENDBRANCH   2  51
BRANCH   3  54
HETATM   54  O   UNL     1       9.307 -22.444   8.306  1.00  0.00    -0.391 OA
HETATM   55  H   UNL     1      10.047 -22.654   8.909  1.00  0.00     0.210 HD
ENDBRANCH   3  54
BRANCH   4  56
HETATM   56  N   UNL     1      11.670 -20.842   7.492  1.00  0.00     0.090 N 
HETATM   57  H   UNL     1      12.495 -21.204   7.954  1.00  0.00     0.313 HD
HETATM   58  H   UNL     1      11.265 -21.608   6.944  1.00  0.00     0.313 HD
ENDBRANCH   4  56
BRANCH   5  59
HETATM   59  O   UNL     1      12.023 -21.628  10.119  1.00  0.00    -0.348 OA
BRANCH  59  60
HETATM   60  C   UNL     1      13.222 -21.168  10.770  1.00  0.00     0.186 C 
HETATM   61  C   UNL     1      13.283 -19.621  10.873  1.00  0.00     0.179 C 
HETATM   62  O   UNL     1      13.515 -19.108  12.202  1.00  0.00    -0.349 OA
HETATM   63  C   UNL     1      14.544 -19.727  12.983  1.00  0.00     0.281 C 
HETATM   64  C   UNL     1      14.549 -21.279  12.863  1.00  0.00     0.149 C 
HETATM   65  C   UNL     1      13.282 -21.811  12.169  1.00  0.00     0.172 C 
BRANCH  61  66
HETATM   66  C   UNL     1      14.352 -19.036   9.937  1.00  0.00     0.198 C 
BRANCH  66  67
HETATM   67  O   UNL     1      14.435 -19.788   8.732  1.00  0.00    -0.398 OA
HETATM   68  H   UNL     1      13.564 -20.204   8.579  1.00  0.00     0.209 HD
ENDBRANCH  66  67
ENDBRANCH  61  66
BRANCH  63  69
HETATM   69  O   UNL     1      14.397 -19.295  14.335  1.00  0.00    -0.349 OA
BRANCH  69  70
HETATM   70  C   UNL     1      15.417 -18.413  14.825  1.00  0.00     0.186 C 
HETATM   71  C   UNL     1      16.418 -18.007  13.715  1.00  0.00     0.176 C 
HETATM   72  O   UNL     1      16.853 -16.626  13.841  1.00  0.00    -0.379 OA
HETATM   73  C   UNL     1      17.103 -16.223  15.194  1.00  0.00     0.196 C 
HETATM   74  C   UNL     1      15.810 -16.231  16.030  1.00  0.00     0.139 C 
HETATM   75  C   UNL     1      14.746 -17.132  15.377  1.00  0.00     0.174 C 
BRANCH  71  76
HETATM   76  C   UNL     1      17.668 -18.896  13.659  1.00  0.00     0.198 C 
BRANCH  76  77
HETATM   77  O   UNL     1      18.087 -19.062  12.305  1.00  0.00    -0.398 OA
HETATM   78  H   UNL     1      17.986 -20.012  12.098  1.00  0.00     0.209 HD
ENDBRANCH  76  77
ENDBRANCH  71  76
BRANCH  74  79
HETATM   79  N   UNL     1      15.298 -14.873  16.218  1.00  0.00    -0.348 N 
HETATM   80  C   UNL     1      14.602 -14.500  17.336  1.00  0.00     0.241 C 
HETATM   81  O   UNL     1      14.328 -15.255  18.260  1.00  0.00    -0.269 OA
HETATM   82  H   UNL     1      15.341 -14.256  15.415  1.00  0.00     0.163 HD
BRANCH  80  83
HETATM   83  C   UNL     1      14.240 -13.066  17.344  1.00  0.00     0.080 C 
HETATM   84  C   UNL     1      14.366 -12.356  16.215  1.00  0.00     0.086 C 
BRANCH  84  85
HETATM   85  C   UNL     1      13.906 -10.967  16.193  1.00  0.00     0.165 C 
HETATM   86  O   UNL     1      12.930 -10.507  16.755  1.00  0.00    -0.647 OA
BRANCH  85  87
HETATM   87  O   UNL     1      14.713 -10.220  15.424  1.00  0.00    -0.773 OA
HETATM   88  H   UNL     1      14.411  -9.300  15.579  1.00  0.00     0.167 HD
ENDBRANCH  85  87
ENDBRANCH  84  85
ENDBRANCH  80  83
ENDBRANCH  74  79
BRANCH  75  89
HETATM   89  O   UNL     1      14.062 -16.403  14.340  1.00  0.00    -0.391 OA
HETATM   90  H   UNL     1      13.461 -15.762  14.763  1.00  0.00     0.210 HD
ENDBRANCH  75  89
ENDBRANCH  69  70
ENDBRANCH  63  69
BRANCH  64  91
HETATM   91  N   UNL     1      15.031 -22.070  14.009  1.00  0.00    -0.247 NA
HETATM   92  C   UNL     1      14.961 -23.437  14.024  1.00  0.00     0.221 C 
HETATM   93  O   UNL     1      15.999 -24.085  13.914  1.00  0.00    -0.275 OA
HETATM   94  H   UNL     1      16.019 -21.882  14.140  1.00  0.00     0.131 HD
BRANCH  92  95
HETATM   95  C   UNL     1      13.701 -24.034  14.489  1.00  0.00     0.074 C 
HETATM   96  C   UNL     1      13.183 -23.470  15.591  1.00  0.00     0.086 C 
BRANCH  96  97
HETATM   97  C   UNL     1      11.886 -23.874  16.129  1.00  0.00     0.165 C 
HETATM   98  O   UNL     1      11.646 -24.398  17.200  1.00  0.00    -0.647 OA
BRANCH  97  99
HETATM   99  O   UNL     1      10.923 -23.603  15.233  1.00  0.00    -0.773 OA
HETATM  100  H   UNL     1      11.406 -23.201  14.481  1.00  0.00     0.167 HD
ENDBRANCH  97  99
ENDBRANCH  96  97
ENDBRANCH  92  95
ENDBRANCH  64  91
BRANCH  65 101
HETATM  101  O   UNL     1      12.105 -21.529  12.923  1.00  0.00    -0.391 OA
HETATM  102  H   UNL     1      11.437 -22.195  12.668  1.00  0.00     0.210 HD
ENDBRANCH  65 101
ENDBRANCH  59  60
ENDBRANCH   5  59
TORSDOF 40
ENDMDL
MODEL 4
REMARK VINA RESULT:      -7.5      4.247     14.879
REMARK WARNING: 32 MAX_TORS EXCEEDED!!!
REMARK  40 active torsions:
REMARK  status: ('A' for Active; 'I' for Inactive)
REMARK    1  A    between atoms: C_1  and  O_44 
REMARK    2  A    between atoms: C_2  and  C_6 
REMARK    3  A    between atoms: C_3  and  O_10 
REMARK    4  A    between atoms: C_4  and  N_12 
REMARK    5  A    between atoms: C_5  and  O_14 
REMARK    6  A    between atoms: C_6  and  O_7 
REMARK    7  A    between atoms: O_14  and  C_27 
REMARK    8  A    between atoms: O_16  and  C_21 
REMARK    9  A    between atoms: C_18  and  C_33 
REMARK   10  A    between atoms: O_20  and  C_33 
REMARK   11  A    between atoms: O_22  and  C_30 
REMARK   12  A    between atoms: O_22  and  C_70 
REMARK   13  A    between atoms: O_23  and  C_24 
REMARK   14  A    between atoms: C_24  and  C_28 
REMARK       I    between atoms: N_29  and  C_32 
REMARK   15  A    between atoms: N_29  and  C_35 
REMARK   16  A    between atoms: C_31  and  C_32 
REMARK   17  A    between atoms: O_38  and  C_43 
REMARK   18  A    between atoms: C_40  and  C_55 
REMARK   19  A    between atoms: O_42  and  C_55 
REMARK   20  A    between atoms: O_44  and  C_52 
REMARK   21  A    between atoms: O_45  and  C_46 
REMARK   22  A    between atoms: C_46  and  C_50 
REMARK   23  A    between atoms: C_49  and  O_87 
REMARK       I    between atoms: N_51  and  C_54 
REMARK   24  A    between atoms: N_51  and  C_57 
REMARK   25  A    between atoms: C_53  and  C_54 
REMARK   26  A    between atoms: O_60  and  C_65 
REMARK   27  A    between atoms: C_62  and  C_76 
REMARK   28  A    between atoms: O_64  and  C_76 
REMARK   29  A    between atoms: O_66  and  C_67 
REMARK   30  A    between atoms: C_67  and  C_71 
REMARK       I    between atoms: N_72  and  C_75 
REMARK   31  A    between atoms: N_72  and  C_78 
REMARK   32  A    between atoms: C_74  and  C_75 
REMARK   33  A    between atoms: O_81  and  C_86 
REMARK   34  A    between atoms: C_83  and  C_98 
REMARK   35  A    between atoms: O_85  and  C_98 
REMARK   36  A    between atoms: O_87  and  C_95 
REMARK   37  A    between atoms: O_88  and  C_89 
REMARK   38  A    between atoms: C_89  and  C_93 
REMARK       I    between atoms: N_94  and  C_97 
REMARK   39  A    between atoms: N_94  and  C_100 
REMARK   40  A    between atoms: C_96  and  C_97 
ROOT
HETATM    1  C   UNL     1      18.636 -17.374  19.962  1.00  0.00     0.186 C 
HETATM    2  C   UNL     1      17.333 -17.342  19.126  1.00  0.00     0.179 C 
HETATM    3  C   UNL     1      19.204 -18.807  20.006  1.00  0.00     0.187 C 
HETATM    4  C   UNL     1      18.086 -19.767  20.476  1.00  0.00     0.303 C 
HETATM    5  C   UNL     1      16.885 -19.719  19.468  1.00  0.00     0.296 C 
HETATM    6  O   UNL     1      16.995 -18.624  18.550  1.00  0.00    -0.349 OA
ENDROOT
BRANCH   1   7
HETATM    7  O   UNL     1      19.607 -16.479  19.395  1.00  0.00    -0.348 OA
BRANCH   7   8
HETATM    8  C   UNL     1      19.597 -15.141  19.909  1.00  0.00     0.286 C 
HETATM    9  O   UNL     1      18.411 -15.008  20.702  1.00  0.00    -0.349 OA
HETATM   10  C   UNL     1      18.237 -13.725  21.334  1.00  0.00     0.180 C 
HETATM   11  C   UNL     1      18.353 -12.536  20.354  1.00  0.00     0.186 C 
HETATM   12  C   UNL     1      18.501 -13.045  18.910  1.00  0.00     0.177 C 
HETATM   13  C   UNL     1      19.625 -14.081  18.765  1.00  0.00     0.171 C 
BRANCH  10  14
HETATM   14  C   UNL     1      19.193 -13.578  22.528  1.00  0.00     0.198 C 
BRANCH  14  15
HETATM   15  O   UNL     1      19.022 -14.643  23.458  1.00  0.00    -0.398 OA
HETATM   16  H   UNL     1      19.251 -15.478  23.005  1.00  0.00     0.209 HD
ENDBRANCH  14  15
ENDBRANCH  10  14
BRANCH  11  17
HETATM   17  O   UNL     1      17.139 -11.774  20.439  1.00  0.00    -0.348 OA
BRANCH  17  18
HETATM   18  C   UNL     1      17.239 -10.362  20.232  1.00  0.00     0.286 C 
HETATM   19  O   UNL     1      16.874  -9.741  21.460  1.00  0.00    -0.352 OA
HETATM   20  C   UNL     1      16.973  -8.305  21.465  1.00  0.00     0.150 C 
HETATM   21  C   UNL     1      16.693  -7.656  20.105  1.00  0.00     0.068 C 
HETATM   22  C   UNL     1      15.728  -8.501  19.292  1.00  0.00     0.148 C 
HETATM   23  C   UNL     1      16.324  -9.904  19.055  1.00  0.00     0.168 C 
BRANCH  20  24
HETATM   24  C   UNL     1      18.349  -7.902  22.010  1.00  0.00     0.196 C 
BRANCH  24  25
HETATM   25  O   UNL     1      18.358  -6.520  22.353  1.00  0.00    -0.398 OA
HETATM   26  H   UNL     1      19.149  -6.380  22.910  1.00  0.00     0.209 HD
ENDBRANCH  24  25
ENDBRANCH  20  24
BRANCH  22  27
HETATM   27  O   UNL     1      14.484  -8.568  19.997  1.00  0.00    -0.393 OA
HETATM   28  H   UNL     1      14.497  -9.413  20.484  1.00  0.00     0.210 HD
ENDBRANCH  22  27
BRANCH  23  29
HETATM   29  N   UNL     1      15.285 -10.883  18.709  1.00  0.00    -0.346 N 
HETATM   30  C   UNL     1      14.849 -10.985  17.411  1.00  0.00     0.241 C 
HETATM   31  O   UNL     1      15.069 -10.134  16.560  1.00  0.00    -0.269 OA
HETATM   32  H   UNL     1      15.175 -11.665  19.353  1.00  0.00     0.163 HD
BRANCH  30  33
HETATM   33  C   UNL     1      14.206 -12.279  17.106  1.00  0.00     0.080 C 
HETATM   34  C   UNL     1      13.888 -13.081  18.130  1.00  0.00     0.086 C 
BRANCH  34  35
HETATM   35  C   UNL     1      13.111 -14.295  17.877  1.00  0.00     0.165 C 
HETATM   36  O   UNL     1      11.917 -14.449  18.035  1.00  0.00    -0.647 OA
BRANCH  35  37
HETATM   37  O   UNL     1      13.919 -15.282  17.460  1.00  0.00    -0.773 OA
HETATM   38  H   UNL     1      14.715 -15.201  18.025  1.00  0.00     0.167 HD
ENDBRANCH  35  37
ENDBRANCH  34  35
ENDBRANCH  30  33
ENDBRANCH  23  29
ENDBRANCH  17  18
ENDBRANCH  11  17
BRANCH  12  39
HETATM   39  O   UNL     1      17.254 -13.572  18.416  1.00  0.00    -0.391 OA
HETATM   40  H   UNL     1      16.578 -12.873  18.517  1.00  0.00     0.210 HD
ENDBRANCH  12  39
BRANCH  13  41
HETATM   41  N   UNL     1      19.582 -14.652  17.419  1.00  0.00    -0.346 N 
HETATM   42  C   UNL     1      20.716 -14.942  16.713  1.00  0.00     0.241 C 
HETATM   43  O   UNL     1      21.842 -14.633  17.084  1.00  0.00    -0.269 OA
HETATM   44  H   UNL     1      18.688 -15.016  17.111  1.00  0.00     0.163 HD
BRANCH  42  45
HETATM   45  C   UNL     1      20.445 -15.678  15.462  1.00  0.00     0.080 C 
HETATM   46  C   UNL     1      20.301 -17.008  15.503  1.00  0.00     0.086 C 
BRANCH  46  47
HETATM   47  C   UNL     1      19.987 -17.724  14.267  1.00  0.00     0.165 C 
HETATM   48  O   UNL     1      20.363 -18.834  13.940  1.00  0.00    -0.647 OA
BRANCH  47  49
HETATM   49  O   UNL     1      19.181 -16.985  13.490  1.00  0.00    -0.773 OA
HETATM   50  H   UNL     1      19.200 -16.098  13.905  1.00  0.00     0.167 HD
ENDBRANCH  47  49
ENDBRANCH  46  47
ENDBRANCH  42  45
ENDBRANCH  13  41
ENDBRANCH   7   8
ENDBRANCH   1   7
BRANCH   2  51
HETATM   51  C   UNL     1      16.148 -16.807  19.947  1.00  0.00     0.198 C 
BRANCH  51  52
HETATM   52  O   UNL     1      15.734 -15.532  19.467  1.00  0.00    -0.398 OA
HETATM   53  H   UNL     1      14.764 -15.473  19.566  1.00  0.00     0.209 HD
ENDBRANCH  51  52
ENDBRANCH   2  51
BRANCH   3  54
HETATM   54  O   UNL     1      19.734 -19.221  18.737  1.00  0.00    -0.391 OA
HETATM   55  H   UNL     1      18.981 -19.466  18.164  1.00  0.00     0.210 HD
ENDBRANCH   3  54
BRANCH   4  56
HETATM   56  N   UNL     1      18.642 -21.102  20.757  1.00  0.00     0.090 N 
HETATM   57  H   UNL     1      19.654 -21.085  20.807  1.00  0.00     0.313 HD
HETATM   58  H   UNL     1      18.295 -21.398  21.676  1.00  0.00     0.313 HD
ENDBRANCH   4  56
BRANCH   5  59
HETATM   59  O   UNL     1      16.830 -20.921  18.677  1.00  0.00    -0.348 OA
BRANCH  59  60
HETATM   60  C   UNL     1      16.872 -20.712  17.252  1.00  0.00     0.186 C 
HETATM   61  C   UNL     1      17.337 -21.976  16.482  1.00  0.00     0.179 C 
HETATM   62  O   UNL     1      16.454 -22.405  15.424  1.00  0.00    -0.349 OA
HETATM   63  C   UNL     1      15.949 -21.404  14.533  1.00  0.00     0.281 C 
HETATM   64  C   UNL     1      15.521 -20.098  15.265  1.00  0.00     0.149 C 
HETATM   65  C   UNL     1      15.466 -20.280  16.792  1.00  0.00     0.172 C 
BRANCH  61  66
HETATM   66  C   UNL     1      18.743 -21.789  15.890  1.00  0.00     0.198 C 
BRANCH  66  67
HETATM   67  O   UNL     1      19.551 -20.993  16.749  1.00  0.00    -0.398 OA
HETATM   68  H   UNL     1      19.265 -21.160  17.668  1.00  0.00     0.209 HD
ENDBRANCH  66  67
ENDBRANCH  61  66
BRANCH  63  69
HETATM   69  O   UNL     1      14.877 -21.974  13.785  1.00  0.00    -0.349 OA
BRANCH  69  70
HETATM   70  C   UNL     1      15.036 -21.968  12.359  1.00  0.00     0.186 C 
HETATM   71  C   UNL     1      15.328 -23.383  11.800  1.00  0.00     0.176 C 
HETATM   72  O   UNL     1      14.683 -23.615  10.518  1.00  0.00    -0.379 OA
HETATM   73  C   UNL     1      14.737 -22.487   9.636  1.00  0.00     0.196 C 
HETATM   74  C   UNL     1      13.930 -21.300  10.192  1.00  0.00     0.139 C 
HETATM   75  C   UNL     1      13.732 -21.442  11.712  1.00  0.00     0.174 C 
BRANCH  71  76
HETATM   76  C   UNL     1      16.824 -23.686  11.643  1.00  0.00     0.198 C 
BRANCH  76  77
HETATM   77  O   UNL     1      17.445 -23.753  12.926  1.00  0.00    -0.398 OA
HETATM   78  H   UNL     1      18.110 -23.036  12.950  1.00  0.00     0.209 HD
ENDBRANCH  76  77
ENDBRANCH  71  76
BRANCH  74  79
HETATM   79  N   UNL     1      12.641 -21.176   9.509  1.00  0.00    -0.348 N 
HETATM   80  C   UNL     1      12.492 -20.469   8.347  1.00  0.00     0.241 C 
HETATM   81  O   UNL     1      13.399 -19.867   7.786  1.00  0.00    -0.269 OA
HETATM   82  H   UNL     1      11.826 -21.503  10.015  1.00  0.00     0.163 HD
BRANCH  80  83
HETATM   83  C   UNL     1      11.120 -20.533   7.799  1.00  0.00     0.080 C 
HETATM   84  C   UNL     1      10.327 -19.458   7.902  1.00  0.00     0.086 C 
BRANCH  84  85
HETATM   85  C   UNL     1       9.009 -19.482   7.264  1.00  0.00     0.165 C 
HETATM   86  O   UNL     1       8.282 -20.445   7.118  1.00  0.00    -0.647 OA
BRANCH  85  87
HETATM   87  O   UNL     1       8.685 -18.259   6.818  1.00  0.00    -0.773 OA
HETATM   88  H   UNL     1       9.255 -17.654   7.336  1.00  0.00     0.167 HD
ENDBRANCH  85  87
ENDBRANCH  84  85
ENDBRANCH  80  83
ENDBRANCH  74  79
BRANCH  75  89
HETATM   89  O   UNL     1      12.618 -22.314  11.979  1.00  0.00    -0.391 OA
HETATM   90  H   UNL     1      11.797 -21.798  11.881  1.00  0.00     0.210 HD
ENDBRANCH  75  89
ENDBRANCH  69  70
ENDBRANCH  63  69
BRANCH  64  91
HETATM   91  N   UNL     1      14.439 -19.287  14.678  1.00  0.00    -0.247 NA
HETATM   92  C   UNL     1      14.697 -18.155  13.951  1.00  0.00     0.221 C 
HETATM   93  O   UNL     1      14.520 -18.178  12.736  1.00  0.00    -0.275 OA
HETATM   94  H   UNL     1      13.913 -19.866  14.034  1.00  0.00     0.131 HD
BRANCH  92  95
HETATM   95  C   UNL     1      14.860 -16.904  14.705  1.00  0.00     0.074 C 
HETATM   96  C   UNL     1      15.884 -16.135  14.306  1.00  0.00     0.086 C 
BRANCH  96  97
HETATM   97  C   UNL     1      16.127 -14.813  14.880  1.00  0.00     0.165 C 
HETATM   98  O   UNL     1      16.599 -14.542  15.968  1.00  0.00    -0.647 OA
BRANCH  97  99
HETATM   99  O   UNL     1      15.722 -13.866  14.019  1.00  0.00    -0.773 OA
HETATM  100  H   UNL     1      16.057 -13.033  14.409  1.00  0.00     0.167 HD
ENDBRANCH  97  99
ENDBRANCH  96  97
ENDBRANCH  92  95
ENDBRANCH  64  91
BRANCH  65 101
HETATM  101  O   UNL     1      14.476 -21.230  17.179  1.00  0.00    -0.391 OA
HETATM  102  H   UNL     1      14.888 -22.114  17.118  1.00  0.00     0.210 HD
ENDBRANCH  65 101
ENDBRANCH  59  60
ENDBRANCH   5  59
TORSDOF 40
ENDMDL
MODEL 5
REMARK VINA RESULT:      -7.4      4.073      7.951
REMARK WARNING: 32 MAX_TORS EXCEEDED!!!
REMARK  40 active torsions:
REMARK  status: ('A' for Active; 'I' for Inactive)
REMARK    1  A    between atoms: C_1  and  O_44 
REMARK    2  A    between atoms: C_2  and  C_6 
REMARK    3  A    between atoms: C_3  and  O_10 
REMARK    4  A    between atoms: C_4  and  N_12 
REMARK    5  A    between atoms: C_5  and  O_14 
REMARK    6  A    between atoms: C_6  and  O_7 
REMARK    7  A    between atoms: O_14  and  C_27 
REMARK    8  A    between atoms: O_16  and  C_21 
REMARK    9  A    between atoms: C_18  and  C_33 
REMARK   10  A    between atoms: O_20  and  C_33 
REMARK   11  A    between atoms: O_22  and  C_30 
REMARK   12  A    between atoms: O_22  and  C_70 
REMARK   13  A    between atoms: O_23  and  C_24 
REMARK   14  A    between atoms: C_24  and  C_28 
REMARK       I    between atoms: N_29  and  C_32 
REMARK   15  A    between atoms: N_29  and  C_35 
REMARK   16  A    between atoms: C_31  and  C_32 
REMARK   17  A    between atoms: O_38  and  C_43 
REMARK   18  A    between atoms: C_40  and  C_55 
REMARK   19  A    between atoms: O_42  and  C_55 
REMARK   20  A    between atoms: O_44  and  C_52 
REMARK   21  A    between atoms: O_45  and  C_46 
REMARK   22  A    between atoms: C_46  and  C_50 
REMARK   23  A    between atoms: C_49  and  O_87 
REMARK       I    between atoms: N_51  and  C_54 
REMARK   24  A    between atoms: N_51  and  C_57 
REMARK   25  A    between atoms: C_53  and  C_54 
REMARK   26  A    between atoms: O_60  and  C_65 
REMARK   27  A    between atoms: C_62  and  C_76 
REMARK   28  A    between atoms: O_64  and  C_76 
REMARK   29  A    between atoms: O_66  and  C_67 
REMARK   30  A    between atoms: C_67  and  C_71 
REMARK       I    between atoms: N_72  and  C_75 
REMARK   31  A    between atoms: N_72  and  C_78 
REMARK   32  A    between atoms: C_74  and  C_75 
REMARK   33  A    between atoms: O_81  and  C_86 
REMARK   34  A    between atoms: C_83  and  C_98 
REMARK   35  A    between atoms: O_85  and  C_98 
REMARK   36  A    between atoms: O_87  and  C_95 
REMARK   37  A    between atoms: O_88  and  C_89 
REMARK   38  A    between atoms: C_89  and  C_93 
REMARK       I    between atoms: N_94  and  C_97 
REMARK   39  A    between atoms: N_94  and  C_100 
REMARK   40  A    between atoms: C_96  and  C_97 
ROOT
HETATM    1  C   UNL     1      15.516 -18.590  14.929  1.00  0.00     0.186 C 
HETATM    2  C   UNL     1      14.883 -17.267  15.426  1.00  0.00     0.179 C 
HETATM    3  C   UNL     1      16.749 -18.944  15.787  1.00  0.00     0.187 C 
HETATM    4  C   UNL     1      17.695 -17.722  15.817  1.00  0.00     0.303 C 
HETATM    5  C   UNL     1      16.958 -16.493  16.456  1.00  0.00     0.296 C 
HETATM    6  O   UNL     1      15.549 -16.718  16.585  1.00  0.00    -0.349 OA
ENDROOT
BRANCH   1   7
HETATM    7  O   UNL     1      14.551 -19.653  14.996  1.00  0.00    -0.348 OA
BRANCH   7   8
HETATM    8  C   UNL     1      14.378 -20.415  13.794  1.00  0.00     0.286 C 
HETATM    9  O   UNL     1      13.449 -19.695  12.975  1.00  0.00    -0.349 OA
HETATM   10  C   UNL     1      13.167 -20.296  11.696  1.00  0.00     0.180 C 
HETATM   11  C   UNL     1      12.748 -21.780  11.792  1.00  0.00     0.186 C 
HETATM   12  C   UNL     1      12.615 -22.204  13.265  1.00  0.00     0.177 C 
HETATM   13  C   UNL     1      13.863 -21.856  14.091  1.00  0.00     0.171 C 
BRANCH  10  14
HETATM   14  C   UNL     1      14.348 -20.096  10.734  1.00  0.00     0.198 C 
BRANCH  14  15
HETATM   15  O   UNL     1      14.235 -18.861  10.033  1.00  0.00    -0.398 OA
HETATM   16  H   UNL     1      13.425 -18.895   9.489  1.00  0.00     0.209 HD
ENDBRANCH  14  15
ENDBRANCH  10  14
BRANCH  11  17
HETATM   17  O   UNL     1      11.461 -21.917  11.169  1.00  0.00    -0.348 OA
BRANCH  17  18
HETATM   18  C   UNL     1      10.621 -20.759  11.145  1.00  0.00     0.286 C 
HETATM   19  O   UNL     1       9.353 -21.162  11.650  1.00  0.00    -0.352 OA
HETATM   20  C   UNL     1       8.382 -20.105  11.760  1.00  0.00     0.150 C 
HETATM   21  C   UNL     1       8.528 -19.012  10.697  1.00  0.00     0.068 C 
HETATM   22  C   UNL     1       9.120 -19.577   9.418  1.00  0.00     0.148 C 
HETATM   23  C   UNL     1      10.513 -20.178   9.701  1.00  0.00     0.168 C 
BRANCH  20  24
HETATM   24  C   UNL     1       8.435 -19.525  13.179  1.00  0.00     0.196 C 
BRANCH  24  25
HETATM   25  O   UNL     1       8.386 -20.574  14.142  1.00  0.00    -0.398 OA
HETATM   26  H   UNL     1       8.939 -21.298  13.788  1.00  0.00     0.209 HD
ENDBRANCH  24  25
ENDBRANCH  20  24
BRANCH  22  27
HETATM   27  O   UNL     1       8.217 -20.557   8.899  1.00  0.00    -0.393 OA
HETATM   28  H   UNL     1       7.728 -20.906   9.668  1.00  0.00     0.210 HD
ENDBRANCH  22  27
BRANCH  23  29
HETATM   29  N   UNL     1      10.915 -21.131   8.657  1.00  0.00    -0.346 N 
HETATM   30  C   UNL     1      12.010 -20.862   7.874  1.00  0.00     0.241 C 
HETATM   31  O   UNL     1      12.527 -19.756   7.799  1.00  0.00    -0.269 OA
HETATM   32  H   UNL     1      10.587 -22.088   8.775  1.00  0.00     0.163 HD
BRANCH  30  33
HETATM   33  C   UNL     1      12.586 -22.063   7.237  1.00  0.00     0.080 C 
HETATM   34  C   UNL     1      11.821 -22.750   6.378  1.00  0.00     0.086 C 
BRANCH  34  35
HETATM   35  C   UNL     1      12.408 -23.849   5.613  1.00  0.00     0.165 C 
HETATM   36  O   UNL     1      11.821 -24.670   4.936  1.00  0.00    -0.647 OA
BRANCH  35  37
HETATM   37  O   UNL     1      13.739 -23.868   5.779  1.00  0.00    -0.773 OA
HETATM   38  H   UNL     1      13.886 -24.516   6.499  1.00  0.00     0.167 HD
ENDBRANCH  35  37
ENDBRANCH  34  35
ENDBRANCH  30  33
ENDBRANCH  23  29
ENDBRANCH  17  18
ENDBRANCH  11  17
BRANCH  12  39
HETATM   39  O   UNL     1      11.433 -21.638  13.864  1.00  0.00    -0.391 OA
HETATM   40  H   UNL     1      10.925 -21.198  13.154  1.00  0.00     0.210 HD
ENDBRANCH  12  39
BRANCH  13  41
HETATM   41  N   UNL     1      13.592 -22.116  15.504  1.00  0.00    -0.346 N 
HETATM   42  C   UNL     1      14.194 -23.135  16.187  1.00  0.00     0.241 C 
HETATM   43  O   UNL     1      14.898 -23.984  15.654  1.00  0.00    -0.269 OA
HETATM   44  H   UNL     1      13.100 -21.389  16.011  1.00  0.00     0.163 HD
BRANCH  42  45
HETATM   45  C   UNL     1      13.920 -23.100  17.638  1.00  0.00     0.080 C 
HETATM   46  C   UNL     1      14.242 -22.006  18.339  1.00  0.00     0.086 C 
BRANCH  46  47
HETATM   47  C   UNL     1      13.925 -21.962  19.766  1.00  0.00     0.165 C 
HETATM   48  O   UNL     1      14.026 -22.867  20.573  1.00  0.00    -0.647 OA
BRANCH  47  49
HETATM   49  O   UNL     1      13.497 -20.739  20.112  1.00  0.00    -0.773 OA
HETATM   50  H   UNL     1      12.560 -20.726  19.828  1.00  0.00     0.167 HD
ENDBRANCH  47  49
ENDBRANCH  46  47
ENDBRANCH  42  45
ENDBRANCH  13  41
ENDBRANCH   7   8
ENDBRANCH   1   7
BRANCH   2  51
HETATM   51  C   UNL     1      14.824 -16.214  14.307  1.00  0.00     0.198 C 
BRANCH  51  52
HETATM   52  O   UNL     1      13.509 -15.683  14.179  1.00  0.00    -0.398 OA
HETATM   53  H   UNL     1      12.884 -16.433  14.128  1.00  0.00     0.209 HD
ENDBRANCH  51  52
ENDBRANCH   2  51
BRANCH   3  54
HETATM   54  O   UNL     1      16.388 -19.346  17.118  1.00  0.00    -0.391 OA
HETATM   55  H   UNL     1      17.156 -19.804  17.510  1.00  0.00     0.210 HD
ENDBRANCH   3  54
BRANCH   4  56
HETATM   56  N   UNL     1      18.987 -18.089  16.424  1.00  0.00     0.090 N 
HETATM   57  H   UNL     1      19.107 -17.664  17.336  1.00  0.00     0.313 HD
HETATM   58  H   UNL     1      18.992 -19.106  16.558  1.00  0.00     0.313 HD
ENDBRANCH   4  56
BRANCH   5  59
HETATM   59  O   UNL     1      17.460 -16.225  17.780  1.00  0.00    -0.348 OA
BRANCH  59  60
HETATM   60  C   UNL     1      16.970 -15.011  18.380  1.00  0.00     0.186 C 
HETATM   61  C   UNL     1      17.542 -14.782  19.804  1.00  0.00     0.179 C 
HETATM   62  O   UNL     1      18.165 -13.497  20.011  1.00  0.00    -0.349 OA
HETATM   63  C   UNL     1      17.474 -12.338  19.531  1.00  0.00     0.281 C 
HETATM   64  C   UNL     1      16.839 -12.547  18.125  1.00  0.00     0.149 C 
HETATM   65  C   UNL     1      17.337 -13.838  17.451  1.00  0.00     0.172 C 
BRANCH  61  66
HETATM   66  C   UNL     1      16.464 -14.975  20.882  1.00  0.00     0.198 C 
BRANCH  66  67
HETATM   67  O   UNL     1      15.425 -15.824  20.411  1.00  0.00    -0.398 OA
HETATM   68  H   UNL     1      15.517 -16.687  20.861  1.00  0.00     0.209 HD
ENDBRANCH  66  67
ENDBRANCH  61  66
BRANCH  63  69
HETATM   69  O   UNL     1      18.382 -11.238  19.550  1.00  0.00    -0.349 OA
BRANCH  69  70
HETATM   70  C   UNL     1      18.640 -10.661  20.838  1.00  0.00     0.186 C 
HETATM   71  C   UNL     1      19.766  -9.600  20.786  1.00  0.00     0.176 C 
HETATM   72  O   UNL     1      19.510  -8.477  21.673  1.00  0.00    -0.379 OA
HETATM   73  C   UNL     1      18.965  -8.860  22.942  1.00  0.00     0.196 C 
HETATM   74  C   UNL     1      17.562  -9.475  22.788  1.00  0.00     0.139 C 
HETATM   75  C   UNL     1      17.346  -9.983  21.350  1.00  0.00     0.174 C 
BRANCH  71  76
HETATM   76  C   UNL     1      21.156 -10.160  21.117  1.00  0.00     0.198 C 
BRANCH  76  77
HETATM   77  O   UNL     1      21.296 -11.471  20.569  1.00  0.00    -0.398 OA
HETATM   78  H   UNL     1      22.178 -11.503  20.149  1.00  0.00     0.209 HD
ENDBRANCH  76  77
ENDBRANCH  71  76
BRANCH  74  79
HETATM   79  N   UNL     1      16.523  -8.515  23.162  1.00  0.00    -0.348 N 
HETATM   80  C   UNL     1      15.864  -8.577  24.360  1.00  0.00     0.241 C 
HETATM   81  O   UNL     1      16.061  -9.436  25.209  1.00  0.00    -0.269 OA
HETATM   82  H   UNL     1      16.197  -7.891  22.432  1.00  0.00     0.163 HD
BRANCH  80  83
HETATM   83  C   UNL     1      14.904  -7.469  24.554  1.00  0.00     0.080 C 
HETATM   84  C   UNL     1      14.003  -7.553  25.542  1.00  0.00     0.086 C 
BRANCH  84  85
HETATM   85  C   UNL     1      13.125  -6.412  25.805  1.00  0.00     0.165 C 
HETATM   86  O   UNL     1      11.965  -6.286  25.466  1.00  0.00    -0.647 OA
BRANCH  85  87
HETATM   87  O   UNL     1      13.787  -5.461  26.481  1.00  0.00    -0.773 OA
HETATM   88  H   UNL     1      13.216  -4.668  26.404  1.00  0.00     0.167 HD
ENDBRANCH  85  87
ENDBRANCH  84  85
ENDBRANCH  80  83
ENDBRANCH  74  79
BRANCH  75  89
HETATM   89  O   UNL     1      16.950  -8.888  20.503  1.00  0.00    -0.391 OA
HETATM   90  H   UNL     1      15.994  -8.739  20.624  1.00  0.00     0.210 HD
ENDBRANCH  75  89
ENDBRANCH  69  70
ENDBRANCH  63  69
BRANCH  64  91
HETATM   91  N   UNL     1      16.693 -11.377  17.241  1.00  0.00    -0.247 NA
HETATM   92  C   UNL     1      15.610 -10.543  17.318  1.00  0.00     0.221 C 
HETATM   93  O   UNL     1      15.762  -9.416  17.782  1.00  0.00    -0.275 OA
HETATM   94  H   UNL     1      17.480 -10.757  17.391  1.00  0.00     0.131 HD
BRANCH  92  95
HETATM   95  C   UNL     1      14.415 -10.931  16.555  1.00  0.00     0.074 C 
HETATM   96  C   UNL     1      14.054 -12.217  16.689  1.00  0.00     0.086 C 
BRANCH  96  97
HETATM   97  C   UNL     1      12.835 -12.744  16.080  1.00  0.00     0.165 C 
HETATM   98  O   UNL     1      12.676 -13.146  14.943  1.00  0.00    -0.647 OA
BRANCH  97  99
HETATM   99  O   UNL     1      11.834 -12.710  16.974  1.00  0.00    -0.773 OA
HETATM  100  H   UNL     1      12.073 -11.970  17.569  1.00  0.00     0.167 HD
ENDBRANCH  97  99
ENDBRANCH  96  97
ENDBRANCH  92  95
ENDBRANCH  64  91
BRANCH  65 101
HETATM  101  O   UNL     1      18.738 -13.796  17.191  1.00  0.00    -0.391 OA
HETATM  102  H   UNL     1      19.188 -13.768  18.058  1.00  0.00     0.210 HD
ENDBRANCH  65 101
ENDBRANCH  59  60
ENDBRANCH   5  59
TORSDOF 40
ENDMDL
MODEL 6
REMARK VINA RESULT:      -7.3     13.904     19.278
REMARK WARNING: 32 MAX_TORS EXCEEDED!!!
REMARK  40 active torsions:
REMARK  status: ('A' for Active; 'I' for Inactive)
REMARK    1  A    between atoms: C_1  and  O_44 
REMARK    2  A    between atoms: C_2  and  C_6 
REMARK    3  A    between atoms: C_3  and  O_10 
REMARK    4  A    between atoms: C_4  and  N_12 
REMARK    5  A    between atoms: C_5  and  O_14 
REMARK    6  A    between atoms: C_6  and  O_7 
REMARK    7  A    between atoms: O_14  and  C_27 
REMARK    8  A    between atoms: O_16  and  C_21 
REMARK    9  A    between atoms: C_18  and  C_33 
REMARK   10  A    between atoms: O_20  and  C_33 
REMARK   11  A    between atoms: O_22  and  C_30 
REMARK   12  A    between atoms: O_22  and  C_70 
REMARK   13  A    between atoms: O_23  and  C_24 
REMARK   14  A    between atoms: C_24  and  C_28 
REMARK       I    between atoms: N_29  and  C_32 
REMARK   15  A    between atoms: N_29  and  C_35 
REMARK   16  A    between atoms: C_31  and  C_32 
REMARK   17  A    between atoms: O_38  and  C_43 
REMARK   18  A    between atoms: C_40  and  C_55 
REMARK   19  A    between atoms: O_42  and  C_55 
REMARK   20  A    between atoms: O_44  and  C_52 
REMARK   21  A    between atoms: O_45  and  C_46 
REMARK   22  A    between atoms: C_46  and  C_50 
REMARK   23  A    between atoms: C_49  and  O_87 
REMARK       I    between atoms: N_51  and  C_54 
REMARK   24  A    between atoms: N_51  and  C_57 
REMARK   25  A    between atoms: C_53  and  C_54 
REMARK   26  A    between atoms: O_60  and  C_65 
REMARK   27  A    between atoms: C_62  and  C_76 
REMARK   28  A    between atoms: O_64  and  C_76 
REMARK   29  A    between atoms: O_66  and  C_67 
REMARK   30  A    between atoms: C_67  and  C_71 
REMARK       I    between atoms: N_72  and  C_75 
REMARK   31  A    between atoms: N_72  and  C_78 
REMARK   32  A    between atoms: C_74  and  C_75 
REMARK   33  A    between atoms: O_81  and  C_86 
REMARK   34  A    between atoms: C_83  and  C_98 
REMARK   35  A    between atoms: O_85  and  C_98 
REMARK   36  A    between atoms: O_87  and  C_95 
REMARK   37  A    between atoms: O_88  and  C_89 
REMARK   38  A    between atoms: C_89  and  C_93 
REMARK       I    between atoms: N_94  and  C_97 
REMARK   39  A    between atoms: N_94  and  C_100 
REMARK   40  A    between atoms: C_96  and  C_97 
ROOT
HETATM    1  C   UNL     1       4.502 -17.608  -1.167  1.00  0.00     0.186 C 
HETATM    2  C   UNL     1       4.749 -18.254   0.218  1.00  0.00     0.179 C 
HETATM    3  C   UNL     1       3.014 -17.734  -1.554  1.00  0.00     0.187 C 
HETATM    4  C   UNL     1       2.595 -19.217  -1.426  1.00  0.00     0.303 C 
HETATM    5  C   UNL     1       2.785 -19.697   0.056  1.00  0.00     0.296 C 
HETATM    6  O   UNL     1       3.543 -18.762   0.832  1.00  0.00    -0.349 OA
ENDROOT
BRANCH   1   7
HETATM    7  O   UNL     1       4.885 -16.223  -1.140  1.00  0.00    -0.348 OA
BRANCH   7   8
HETATM    8  C   UNL     1       5.224 -15.645  -2.407  1.00  0.00     0.286 C 
HETATM    9  O   UNL     1       6.609 -15.284  -2.344  1.00  0.00    -0.349 OA
HETATM   10  C   UNL     1       7.148 -14.707  -3.550  1.00  0.00     0.180 C 
HETATM   11  C   UNL     1       6.317 -13.521  -4.088  1.00  0.00     0.186 C 
HETATM   12  C   UNL     1       5.180 -13.176  -3.111  1.00  0.00     0.177 C 
HETATM   13  C   UNL     1       4.337 -14.403  -2.733  1.00  0.00     0.171 C 
BRANCH  10  14
HETATM   14  C   UNL     1       7.359 -15.790  -4.619  1.00  0.00     0.198 C 
BRANCH  14  15
HETATM   15  O   UNL     1       7.825 -15.224  -5.839  1.00  0.00    -0.398 OA
HETATM   16  H   UNL     1       7.979 -14.270  -5.690  1.00  0.00     0.209 HD
ENDBRANCH  14  15
ENDBRANCH  10  14
BRANCH  11  17
HETATM   17  O   UNL     1       7.186 -12.381  -4.186  1.00  0.00    -0.348 OA
BRANCH  17  18
HETATM   18  C   UNL     1       7.237 -11.706  -5.446  1.00  0.00     0.286 C 
HETATM   19  O   UNL     1       8.613 -11.578  -5.787  1.00  0.00    -0.352 OA
HETATM   20  C   UNL     1       8.866 -10.970  -7.066  1.00  0.00     0.150 C 
HETATM   21  C   UNL     1       7.822  -9.927  -7.478  1.00  0.00     0.068 C 
HETATM   22  C   UNL     1       7.213  -9.262  -6.256  1.00  0.00     0.148 C 
HETATM   23  C   UNL     1       6.528 -10.319  -5.365  1.00  0.00     0.168 C 
BRANCH  20  24
HETATM   24  C   UNL     1       9.009 -12.074  -8.123  1.00  0.00     0.196 C 
BRANCH  24  25
HETATM   25  O   UNL     1       9.511 -13.266  -7.524  1.00  0.00    -0.398 OA
HETATM   26  H   UNL     1       9.909 -13.790  -8.247  1.00  0.00     0.209 HD
ENDBRANCH  24  25
ENDBRANCH  20  24
BRANCH  22  27
HETATM   27  O   UNL     1       8.252  -8.572  -5.555  1.00  0.00    -0.393 OA
HETATM   28  H   UNL     1       8.623  -9.217  -4.923  1.00  0.00     0.210 HD
ENDBRANCH  22  27
BRANCH  23  29
HETATM   29  N   UNL     1       6.349  -9.835  -3.990  1.00  0.00    -0.346 N 
HETATM   30  C   UNL     1       5.152  -9.279  -3.613  1.00  0.00     0.241 C 
HETATM   31  O   UNL     1       4.302  -8.909  -4.412  1.00  0.00    -0.269 OA
HETATM   32  H   UNL     1       6.977 -10.229  -3.291  1.00  0.00     0.163 HD
BRANCH  30  33
HETATM   33  C   UNL     1       4.930  -9.293  -2.153  1.00  0.00     0.080 C 
HETATM   34  C   UNL     1       3.803  -9.850  -1.692  1.00  0.00     0.086 C 
BRANCH  34  35
HETATM   35  C   UNL     1       3.623 -10.022  -0.250  1.00  0.00     0.165 C 
HETATM   36  O   UNL     1       2.651  -9.715   0.410  1.00  0.00    -0.647 OA
BRANCH  35  37
HETATM   37  O   UNL     1       4.728 -10.555   0.292  1.00  0.00    -0.773 OA
HETATM   38  H   UNL     1       5.329  -9.792   0.421  1.00  0.00     0.167 HD
ENDBRANCH  35  37
ENDBRANCH  34  35
ENDBRANCH  30  33
ENDBRANCH  23  29
ENDBRANCH  17  18
ENDBRANCH  11  17
BRANCH  12  39
HETATM   39  O   UNL     1       5.690 -12.525  -1.931  1.00  0.00    -0.391 OA
HETATM   40  H   UNL     1       4.936 -12.088  -1.486  1.00  0.00     0.210 HD
ENDBRANCH  12  39
BRANCH  13  41
HETATM   41  N   UNL     1       3.405 -14.037  -1.668  1.00  0.00    -0.346 N 
HETATM   42  C   UNL     1       2.155 -13.548  -1.928  1.00  0.00     0.241 C 
HETATM   43  O   UNL     1       1.764 -13.256  -3.051  1.00  0.00    -0.269 OA
HETATM   44  H   UNL     1       3.640 -14.353  -0.734  1.00  0.00     0.163 HD
BRANCH  42  45
HETATM   45  C   UNL     1       1.320 -13.423  -0.717  1.00  0.00     0.080 C 
HETATM   46  C   UNL     1       0.675 -12.274  -0.483  1.00  0.00     0.086 C 
BRANCH  46  47
HETATM   47  C   UNL     1      -0.187 -12.174   0.694  1.00  0.00     0.165 C 
HETATM   48  O   UNL     1      -1.239 -12.752   0.891  1.00  0.00    -0.647 OA
BRANCH  47  49
HETATM   49  O   UNL     1       0.347 -11.335   1.595  1.00  0.00    -0.773 OA
HETATM   50  H   UNL     1       0.125 -10.445   1.250  1.00  0.00     0.167 HD
ENDBRANCH  47  49
ENDBRANCH  46  47
ENDBRANCH  42  45
ENDBRANCH  13  41
ENDBRANCH   7   8
ENDBRANCH   1   7
BRANCH   2  51
HETATM   51  C   UNL     1       5.808 -19.366   0.142  1.00  0.00     0.198 C 
BRANCH  51  52
HETATM   52  O   UNL     1       6.429 -19.388  -1.139  1.00  0.00    -0.398 OA
HETATM   53  H   UNL     1       5.729 -19.313  -1.816  1.00  0.00     0.209 HD
ENDBRANCH  51  52
ENDBRANCH   2  51
BRANCH   3  54
HETATM   54  O   UNL     1       2.171 -16.892  -0.753  1.00  0.00    -0.391 OA
HETATM   55  H   UNL     1       1.974 -16.087  -1.270  1.00  0.00     0.210 HD
ENDBRANCH   3  54
BRANCH   4  56
HETATM   56  N   UNL     1       1.257 -19.424  -2.007  1.00  0.00     0.090 N 
HETATM   57  H   UNL     1       1.014 -18.688  -2.660  1.00  0.00     0.313 HD
HETATM   58  H   UNL     1       1.277 -20.305  -2.531  1.00  0.00     0.313 HD
ENDBRANCH   4  56
BRANCH   5  59
HETATM   59  O   UNL     1       1.512 -19.849   0.713  1.00  0.00    -0.348 OA
BRANCH  59  60
HETATM   60  C   UNL     1       1.544 -20.631   1.922  1.00  0.00     0.186 C 
HETATM   61  C   UNL     1       2.932 -21.279   2.171  1.00  0.00     0.179 C 
HETATM   62  O   UNL     1       3.504 -21.014   3.469  1.00  0.00    -0.349 OA
HETATM   63  C   UNL     1       2.650 -21.147   4.611  1.00  0.00     0.281 C 
HETATM   64  C   UNL     1       1.229 -20.555   4.381  1.00  0.00     0.149 C 
HETATM   65  C   UNL     1       1.153 -19.712   3.095  1.00  0.00     0.172 C 
BRANCH  61  66
HETATM   66  C   UNL     1       2.888 -22.801   1.965  1.00  0.00     0.198 C 
BRANCH  66  67
HETATM   67  O   UNL     1       1.545 -23.260   1.868  1.00  0.00    -0.398 OA
HETATM   68  H   UNL     1       1.506 -24.157   2.253  1.00  0.00     0.209 HD
ENDBRANCH  66  67
ENDBRANCH  61  66
BRANCH  63  69
HETATM   69  O   UNL     1       3.304 -20.548   5.729  1.00  0.00    -0.349 OA
BRANCH  69  70
HETATM   70  C   UNL     1       4.307 -21.348   6.370  1.00  0.00     0.186 C 
HETATM   71  C   UNL     1       5.032 -20.577   7.501  1.00  0.00     0.176 C 
HETATM   72  O   UNL     1       5.346 -21.427   8.637  1.00  0.00    -0.379 OA
HETATM   73  C   UNL     1       5.810 -22.732   8.268  1.00  0.00     0.196 C 
HETATM   74  C   UNL     1       4.709 -23.539   7.556  1.00  0.00     0.139 C 
HETATM   75  C   UNL     1       3.632 -22.600   6.981  1.00  0.00     0.174 C 
BRANCH  71  76
HETATM   76  C   UNL     1       6.329 -19.893   7.046  1.00  0.00     0.198 C 
BRANCH  76  77
HETATM   77  O   UNL     1       6.251 -19.576   5.657  1.00  0.00    -0.398 OA
HETATM   78  H   UNL     1       7.152 -19.690   5.295  1.00  0.00     0.209 HD
ENDBRANCH  76  77
ENDBRANCH  71  76
BRANCH  74  79
HETATM   79  N   UNL     1       4.111 -24.523   8.460  1.00  0.00    -0.348 N 
HETATM   80  C   UNL     1       4.055 -25.856   8.158  1.00  0.00     0.241 C 
HETATM   81  O   UNL     1       4.472 -26.344   7.115  1.00  0.00    -0.269 OA
HETATM   82  H   UNL     1       3.597 -24.158   9.253  1.00  0.00     0.163 HD
BRANCH  80  83
HETATM   83  C   UNL     1       3.470 -26.675   9.242  1.00  0.00     0.080 C 
HETATM   84  C   UNL     1       2.169 -26.540   9.530  1.00  0.00     0.086 C 
BRANCH  84  85
HETATM   85  C   UNL     1       1.565 -27.425  10.527  1.00  0.00     0.165 C 
HETATM   86  O   UNL     1       1.760 -27.420  11.727  1.00  0.00    -0.647 OA
BRANCH  85  87
HETATM   87  O   UNL     1       0.743 -28.304   9.934  1.00  0.00    -0.773 OA
HETATM   88  H   UNL     1       0.939 -28.211   8.978  1.00  0.00     0.167 HD
ENDBRANCH  85  87
ENDBRANCH  84  85
ENDBRANCH  80  83
ENDBRANCH  74  79
BRANCH  75  89
HETATM   89  O   UNL     1       2.694 -22.245   8.014  1.00  0.00    -0.391 OA
HETATM   90  H   UNL     1       1.991 -21.702   7.614  1.00  0.00     0.210 HD
ENDBRANCH  75  89
ENDBRANCH  69  70
ENDBRANCH  63  69
BRANCH  64  91
HETATM   91  N   UNL     1       0.495 -20.020   5.542  1.00  0.00    -0.247 NA
HETATM   92  C   UNL     1      -0.117 -20.841   6.452  1.00  0.00     0.221 C 
HETATM   93  O   UNL     1       0.371 -20.949   7.574  1.00  0.00    -0.275 OA
HETATM   94  H   UNL     1       1.135 -19.476   6.108  1.00  0.00     0.131 HD
BRANCH  92  95
HETATM   95  C   UNL     1      -1.482 -21.285   6.135  1.00  0.00     0.074 C 
HETATM   96  C   UNL     1      -2.162 -21.798   7.171  1.00  0.00     0.086 C 
BRANCH  96  97
HETATM   97  C   UNL     1      -3.564 -22.194   7.054  1.00  0.00     0.165 C 
HETATM   98  O   UNL     1      -4.023 -23.185   6.517  1.00  0.00    -0.647 OA
BRANCH  97  99
HETATM   99  O   UNL     1      -4.344 -21.264   7.628  1.00  0.00    -0.773 OA
HETATM  100  H   UNL     1      -4.014 -20.419   7.261  1.00  0.00     0.167 HD
ENDBRANCH  97  99
ENDBRANCH  96  97
ENDBRANCH  92  95
ENDBRANCH  64  91
BRANCH  65 101
HETATM  101  O   UNL     1       1.995 -18.564   3.162  1.00  0.00    -0.391 OA
HETATM  102  H   UNL     1       2.550 -18.570   2.358  1.00  0.00     0.210 HD
ENDBRANCH  65 101
ENDBRANCH  59  60
ENDBRANCH   5  59
TORSDOF 40
ENDMDL
MODEL 7
REMARK VINA RESULT:      -7.2      3.587      7.844
REMARK WARNING: 32 MAX_TORS EXCEEDED!!!
REMARK  40 active torsions:
REMARK  status: ('A' for Active; 'I' for Inactive)
REMARK    1  A    between atoms: C_1  and  O_44 
REMARK    2  A    between atoms: C_2  and  C_6 
REMARK    3  A    between atoms: C_3  and  O_10 
REMARK    4  A    between atoms: C_4  and  N_12 
REMARK    5  A    between atoms: C_5  and  O_14 
REMARK    6  A    between atoms: C_6  and  O_7 
REMARK    7  A    between atoms: O_14  and  C_27 
REMARK    8  A    between atoms: O_16  and  C_21 
REMARK    9  A    between atoms: C_18  and  C_33 
REMARK   10  A    between atoms: O_20  and  C_33 
REMARK   11  A    between atoms: O_22  and  C_30 
REMARK   12  A    between atoms: O_22  and  C_70 
REMARK   13  A    between atoms: O_23  and  C_24 
REMARK   14  A    between atoms: C_24  and  C_28 
REMARK       I    between atoms: N_29  and  C_32 
REMARK   15  A    between atoms: N_29  and  C_35 
REMARK   16  A    between atoms: C_31  and  C_32 
REMARK   17  A    between atoms: O_38  and  C_43 
REMARK   18  A    between atoms: C_40  and  C_55 
REMARK   19  A    between atoms: O_42  and  C_55 
REMARK   20  A    between atoms: O_44  and  C_52 
REMARK   21  A    between atoms: O_45  and  C_46 
REMARK   22  A    between atoms: C_46  and  C_50 
REMARK   23  A    between atoms: C_49  and  O_87 
REMARK       I    between atoms: N_51  and  C_54 
REMARK   24  A    between atoms: N_51  and  C_57 
REMARK   25  A    between atoms: C_53  and  C_54 
REMARK   26  A    between atoms: O_60  and  C_65 
REMARK   27  A    between atoms: C_62  and  C_76 
REMARK   28  A    between atoms: O_64  and  C_76 
REMARK   29  A    between atoms: O_66  and  C_67 
REMARK   30  A    between atoms: C_67  and  C_71 
REMARK       I    between atoms: N_72  and  C_75 
REMARK   31  A    between atoms: N_72  and  C_78 
REMARK   32  A    between atoms: C_74  and  C_75 
REMARK   33  A    between atoms: O_81  and  C_86 
REMARK   34  A    between atoms: C_83  and  C_98 
REMARK   35  A    between atoms: O_85  and  C_98 
REMARK   36  A    between atoms: O_87  and  C_95 
REMARK   37  A    between atoms: O_88  and  C_89 
REMARK   38  A    between atoms: C_89  and  C_93 
REMARK       I    between atoms: N_94  and  C_97 
REMARK   39  A    between atoms: N_94  and  C_100 
REMARK   40  A    between atoms: C_96  and  C_97 
ROOT
HETATM    1  C   UNL     1      16.027 -18.366  14.891  1.00  0.00     0.186 C 
HETATM    2  C   UNL     1      15.036 -17.403  15.587  1.00  0.00     0.179 C 
HETATM    3  C   UNL     1      17.356 -18.417  15.673  1.00  0.00     0.187 C 
HETATM    4  C   UNL     1      17.864 -16.972  15.878  1.00  0.00     0.303 C 
HETATM    5  C   UNL     1      16.811 -16.150  16.702  1.00  0.00     0.296 C 
HETATM    6  O   UNL     1      15.558 -16.835  16.810  1.00  0.00    -0.349 OA
ENDROOT
BRANCH   1   7
HETATM    7  O   UNL     1      15.458 -19.683  14.806  1.00  0.00    -0.348 OA
BRANCH   7   8
HETATM    8  C   UNL     1      15.429 -20.267  13.497  1.00  0.00     0.286 C 
HETATM    9  O   UNL     1      14.678 -19.378  12.662  1.00  0.00    -0.349 OA
HETATM   10  C   UNL     1      14.561 -19.784  11.284  1.00  0.00     0.180 C 
HETATM   11  C   UNL     1      14.049 -21.231  11.110  1.00  0.00     0.186 C 
HETATM   12  C   UNL     1      13.669 -21.832  12.474  1.00  0.00     0.177 C 
HETATM   13  C   UNL     1      14.793 -21.691  13.512  1.00  0.00     0.171 C 
BRANCH  10  14
HETATM   14  C   UNL     1      15.885 -19.552  10.539  1.00  0.00     0.198 C 
BRANCH  14  15
HETATM   15  O   UNL     1      15.667 -19.393   9.141  1.00  0.00    -0.398 OA
HETATM   16  H   UNL     1      15.311 -18.496   8.991  1.00  0.00     0.209 HD
ENDBRANCH  14  15
ENDBRANCH  10  14
BRANCH  11  17
HETATM   17  O   UNL     1      12.867 -21.186  10.295  1.00  0.00    -0.348 OA
BRANCH  17  18
HETATM   18  C   UNL     1      12.868 -21.975   9.101  1.00  0.00     0.286 C 
HETATM   19  O   UNL     1      13.448 -21.172   8.080  1.00  0.00    -0.352 OA
HETATM   20  C   UNL     1      13.591 -21.824   6.805  1.00  0.00     0.150 C 
HETATM   21  C   UNL     1      12.503 -22.862   6.510  1.00  0.00     0.068 C 
HETATM   22  C   UNL     1      11.204 -22.496   7.206  1.00  0.00     0.148 C 
HETATM   23  C   UNL     1      11.423 -22.431   8.733  1.00  0.00     0.168 C 
BRANCH  20  24
HETATM   24  C   UNL     1      14.995 -22.436   6.713  1.00  0.00     0.196 C 
BRANCH  24  25
HETATM   25  O   UNL     1      15.714 -21.858   5.627  1.00  0.00    -0.398 OA
HETATM   26  H   UNL     1      15.045 -21.583   4.970  1.00  0.00     0.209 HD
ENDBRANCH  24  25
ENDBRANCH  20  24
BRANCH  22  27
HETATM   27  O   UNL     1      10.751 -21.243   6.684  1.00  0.00    -0.393 OA
HETATM   28  H   UNL     1      11.284 -20.558   7.130  1.00  0.00     0.210 HD
ENDBRANCH  22  27
BRANCH  23  29
HETATM   29  N   UNL     1      10.376 -21.643   9.397  1.00  0.00    -0.346 N 
HETATM   30  C   UNL     1       9.454 -22.272  10.197  1.00  0.00     0.241 C 
HETATM   31  O   UNL     1       9.272 -23.482  10.190  1.00  0.00    -0.269 OA
HETATM   32  H   UNL     1      10.570 -20.650   9.517  1.00  0.00     0.163 HD
BRANCH  30  33
HETATM   33  C   UNL     1       8.798 -21.367  11.162  1.00  0.00     0.080 C 
HETATM   34  C   UNL     1       9.430 -20.232  11.491  1.00  0.00     0.086 C 
BRANCH  34  35
HETATM   35  C   UNL     1       8.742 -19.242  12.320  1.00  0.00     0.165 C 
HETATM   36  O   UNL     1       8.431 -19.352  13.490  1.00  0.00    -0.647 OA
BRANCH  35  37
HETATM   37  O   UNL     1       8.451 -18.153  11.593  1.00  0.00    -0.773 OA
HETATM   38  H   UNL     1       9.063 -18.198  10.830  1.00  0.00     0.167 HD
ENDBRANCH  35  37
ENDBRANCH  34  35
ENDBRANCH  30  33
ENDBRANCH  23  29
ENDBRANCH  17  18
ENDBRANCH  11  17
BRANCH  12  39
HETATM   39  O   UNL     1      12.443 -21.259  12.970  1.00  0.00    -0.391 OA
HETATM   40  H   UNL     1      12.260 -20.454  12.445  1.00  0.00     0.210 HD
ENDBRANCH  12  39
BRANCH  13  41
HETATM   41  N   UNL     1      14.294 -22.110  14.821  1.00  0.00    -0.346 N 
HETATM   42  C   UNL     1      14.798 -23.197  15.480  1.00  0.00     0.241 C 
HETATM   43  O   UNL     1      15.602 -23.976  14.983  1.00  0.00    -0.269 OA
HETATM   44  H   UNL     1      13.707 -21.447  15.314  1.00  0.00     0.163 HD
BRANCH  42  45
HETATM   45  C   UNL     1      14.282 -23.327  16.857  1.00  0.00     0.080 C 
HETATM   46  C   UNL     1      13.121 -22.745  17.181  1.00  0.00     0.086 C 
BRANCH  46  47
HETATM   47  C   UNL     1      12.596 -22.919  18.534  1.00  0.00     0.165 C 
HETATM   48  O   UNL     1      13.231 -23.114  19.553  1.00  0.00    -0.647 OA
BRANCH  47  49
HETATM   49  O   UNL     1      11.258 -22.819  18.533  1.00  0.00    -0.773 OA
HETATM   50  H   UNL     1      11.042 -22.524  19.441  1.00  0.00     0.167 HD
ENDBRANCH  47  49
ENDBRANCH  46  47
ENDBRANCH  42  45
ENDBRANCH  13  41
ENDBRANCH   7   8
ENDBRANCH   1   7
BRANCH   2  51
HETATM   51  C   UNL     1      14.579 -16.281  14.641  1.00  0.00     0.198 C 
BRANCH  51  52
HETATM   52  O   UNL     1      13.726 -16.792  13.622  1.00  0.00    -0.398 OA
HETATM   53  H   UNL     1      14.281 -17.266  12.972  1.00  0.00     0.209 HD
ENDBRANCH  51  52
ENDBRANCH   2  51
BRANCH   3  54
HETATM   54  O   UNL     1      17.220 -19.096  16.932  1.00  0.00    -0.391 OA
HETATM   55  H   UNL     1      17.302 -18.429  17.641  1.00  0.00     0.210 HD
ENDBRANCH   3  54
BRANCH   4  56
HETATM   56  N   UNL     1      19.238 -16.981  16.410  1.00  0.00     0.090 N 
HETATM   57  H   UNL     1      19.317 -16.426  17.254  1.00  0.00     0.313 HD
HETATM   58  H   UNL     1      19.471 -17.949  16.657  1.00  0.00     0.313 HD
ENDBRANCH   4  56
BRANCH   5  59
HETATM   59  O   UNL     1      17.277 -15.921  18.046  1.00  0.00    -0.348 OA
BRANCH  59  60
HETATM   60  C   UNL     1      16.825 -14.691  18.644  1.00  0.00     0.186 C 
HETATM   61  C   UNL     1      17.412 -14.472  20.064  1.00  0.00     0.179 C 
HETATM   62  O   UNL     1      18.071 -13.204  20.262  1.00  0.00    -0.349 OA
HETATM   63  C   UNL     1      17.409 -12.029  19.781  1.00  0.00     0.281 C 
HETATM   64  C   UNL     1      16.760 -12.226  18.380  1.00  0.00     0.149 C 
HETATM   65  C   UNL     1      17.218 -13.533  17.708  1.00  0.00     0.172 C 
BRANCH  61  66
HETATM   66  C   UNL     1      16.335 -14.631  21.149  1.00  0.00     0.198 C 
BRANCH  66  67
HETATM   67  O   UNL     1      16.813 -14.167  22.406  1.00  0.00    -0.398 OA
HETATM   68  H   UNL     1      16.686 -13.198  22.435  1.00  0.00     0.209 HD
ENDBRANCH  66  67
ENDBRANCH  61  66
BRANCH  63  69
HETATM   69  O   UNL     1      18.347 -10.954  19.790  1.00  0.00    -0.349 OA
BRANCH  69  70
HETATM   70  C   UNL     1      18.501 -10.268  21.041  1.00  0.00     0.186 C 
HETATM   71  C   UNL     1      19.349  -8.980  20.898  1.00  0.00     0.176 C 
HETATM   72  O   UNL     1      18.865  -7.902  21.744  1.00  0.00    -0.379 OA
HETATM   73  C   UNL     1      18.460  -8.334  23.049  1.00  0.00     0.196 C 
HETATM   74  C   UNL     1      17.234  -9.262  22.978  1.00  0.00     0.139 C 
HETATM   75  C   UNL     1      17.100  -9.879  21.573  1.00  0.00     0.174 C 
BRANCH  71  76
HETATM   76  C   UNL     1      20.840  -9.189  21.198  1.00  0.00     0.198 C 
BRANCH  76  77
HETATM   77  O   UNL     1      21.172 -10.571  21.074  1.00  0.00    -0.398 OA
HETATM   78  H   UNL     1      21.904 -10.623  20.428  1.00  0.00     0.209 HD
ENDBRANCH  76  77
ENDBRANCH  71  76
BRANCH  74  79
HETATM   79  N   UNL     1      16.012  -8.548  23.350  1.00  0.00    -0.348 N 
HETATM   80  C   UNL     1      15.595  -8.436  24.649  1.00  0.00     0.241 C 
HETATM   81  O   UNL     1      16.180  -8.930  25.604  1.00  0.00    -0.269 OA
HETATM   82  H   UNL     1      15.399  -8.271  22.592  1.00  0.00     0.163 HD
BRANCH  80  83
HETATM   83  C   UNL     1      14.373  -7.617  24.799  1.00  0.00     0.080 C 
HETATM   84  C   UNL     1      14.003  -7.219  26.024  1.00  0.00     0.086 C 
BRANCH  84  85
HETATM   85  C   UNL     1      12.857  -6.319  26.164  1.00  0.00     0.165 C 
HETATM   86  O   UNL     1      11.995  -6.093  25.337  1.00  0.00    -0.647 OA
BRANCH  85  87
HETATM   87  O   UNL     1      12.877  -5.722  27.365  1.00  0.00    -0.773 OA
HETATM   88  H   UNL     1      11.973  -5.858  27.718  1.00  0.00     0.167 HD
ENDBRANCH  85  87
ENDBRANCH  84  85
ENDBRANCH  80  83
ENDBRANCH  74  79
BRANCH  75  89
HETATM   89  O   UNL     1      16.438  -8.949  20.695  1.00  0.00    -0.391 OA
HETATM   90  H   UNL     1      15.534  -8.805  21.030  1.00  0.00     0.210 HD
ENDBRANCH  75  89
ENDBRANCH  69  70
ENDBRANCH  63  69
BRANCH  64  91
HETATM   91  N   UNL     1      16.641 -11.056  17.491  1.00  0.00    -0.247 NA
HETATM   92  C   UNL     1      15.494 -10.311  17.427  1.00  0.00     0.221 C 
HETATM   93  O   UNL     1      15.492  -9.183  17.915  1.00  0.00    -0.275 OA
HETATM   94  H   UNL     1      17.349 -10.379  17.750  1.00  0.00     0.131 HD
BRANCH  92  95
HETATM   95  C   UNL     1      14.447 -10.778  16.507  1.00  0.00     0.074 C 
HETATM   96  C   UNL     1      14.694 -11.963  15.928  1.00  0.00     0.086 C 
BRANCH  96  97
HETATM   97  C   UNL     1      13.715 -12.620  15.065  1.00  0.00     0.165 C 
HETATM   98  O   UNL     1      12.649 -13.116  15.379  1.00  0.00    -0.647 OA
BRANCH  97  99
HETATM   99  O   UNL     1      14.167 -12.634  13.801  1.00  0.00    -0.773 OA
HETATM  100  H   UNL     1      14.146 -13.582  13.553  1.00  0.00     0.167 HD
ENDBRANCH  97  99
ENDBRANCH  96  97
ENDBRANCH  92  95
ENDBRANCH  64  91
BRANCH  65 101
HETATM  101  O   UNL     1      18.618 -13.530  17.440  1.00  0.00    -0.391 OA
HETATM  102  H   UNL     1      18.868 -12.608  17.236  1.00  0.00     0.210 HD
ENDBRANCH  65 101
ENDBRANCH  59  60
ENDBRANCH   5  59
TORSDOF 40
ENDMDL
MODEL 8
REMARK VINA RESULT:      -7.2     23.972     29.389
REMARK WARNING: 32 MAX_TORS EXCEEDED!!!
REMARK  40 active torsions:
REMARK  status: ('A' for Active; 'I' for Inactive)
REMARK    1  A    between atoms: C_1  and  O_44 
REMARK    2  A    between atoms: C_2  and  C_6 
REMARK    3  A    between atoms: C_3  and  O_10 
REMARK    4  A    between atoms: C_4  and  N_12 
REMARK    5  A    between atoms: C_5  and  O_14 
REMARK    6  A    between atoms: C_6  and  O_7 
REMARK    7  A    between atoms: O_14  and  C_27 
REMARK    8  A    between atoms: O_16  and  C_21 
REMARK    9  A    between atoms: C_18  and  C_33 
REMARK   10  A    between atoms: O_20  and  C_33 
REMARK   11  A    between atoms: O_22  and  C_30 
REMARK   12  A    between atoms: O_22  and  C_70 
REMARK   13  A    between atoms: O_23  and  C_24 
REMARK   14  A    between atoms: C_24  and  C_28 
REMARK       I    between atoms: N_29  and  C_32 
REMARK   15  A    between atoms: N_29  and  C_35 
REMARK   16  A    between atoms: C_31  and  C_32 
REMARK   17  A    between atoms: O_38  and  C_43 
REMARK   18  A    between atoms: C_40  and  C_55 
REMARK   19  A    between atoms: O_42  and  C_55 
REMARK   20  A    between atoms: O_44  and  C_52 
REMARK   21  A    between atoms: O_45  and  C_46 
REMARK   22  A    between atoms: C_46  and  C_50 
REMARK   23  A    between atoms: C_49  and  O_87 
REMARK       I    between atoms: N_51  and  C_54 
REMARK   24  A    between atoms: N_51  and  C_57 
REMARK   25  A    between atoms: C_53  and  C_54 
REMARK   26  A    between atoms: O_60  and  C_65 
REMARK   27  A    between atoms: C_62  and  C_76 
REMARK   28  A    between atoms: O_64  and  C_76 
REMARK   29  A    between atoms: O_66  and  C_67 
REMARK   30  A    between atoms: C_67  and  C_71 
REMARK       I    between atoms: N_72  and  C_75 
REMARK   31  A    between atoms: N_72  and  C_78 
REMARK   32  A    between atoms: C_74  and  C_75 
REMARK   33  A    between atoms: O_81  and  C_86 
REMARK   34  A    between atoms: C_83  and  C_98 
REMARK   35  A    between atoms: O_85  and  C_98 
REMARK   36  A    between atoms: O_87  and  C_95 
REMARK   37  A    between atoms: O_88  and  C_89 
REMARK   38  A    between atoms: C_89  and  C_93 
REMARK       I    between atoms: N_94  and  C_97 
REMARK   39  A    between atoms: N_94  and  C_100 
REMARK   40  A    between atoms: C_96  and  C_97 
ROOT
HETATM    1  C   UNL     1      -6.605 -18.181  31.474  1.00  0.00     0.186 C 
HETATM    2  C   UNL     1      -5.788 -17.035  32.119  1.00  0.00     0.179 C 
HETATM    3  C   UNL     1      -8.094 -17.786  31.385  1.00  0.00     0.187 C 
HETATM    4  C   UNL     1      -8.569 -17.335  32.786  1.00  0.00     0.303 C 
HETATM    5  C   UNL     1      -7.733 -16.093  33.257  1.00  0.00     0.296 C 
HETATM    6  O   UNL     1      -6.587 -15.870  32.428  1.00  0.00    -0.349 OA
ENDROOT
BRANCH   1   7
HETATM    7  O   UNL     1      -6.097 -18.470  30.161  1.00  0.00    -0.348 OA
BRANCH   7   8
HETATM    8  C   UNL     1      -5.311 -19.664  30.046  1.00  0.00     0.286 C 
HETATM    9  O   UNL     1      -3.950 -19.251  29.875  1.00  0.00    -0.349 OA
HETATM   10  C   UNL     1      -2.993 -20.323  29.769  1.00  0.00     0.180 C 
HETATM   11  C   UNL     1      -3.365 -21.376  28.701  1.00  0.00     0.186 C 
HETATM   12  C   UNL     1      -4.616 -20.933  27.925  1.00  0.00     0.177 C 
HETATM   13  C   UNL     1      -5.780 -20.553  28.854  1.00  0.00     0.171 C 
BRANCH  10  14
HETATM   14  C   UNL     1      -2.748 -20.965  31.143  1.00  0.00     0.198 C 
BRANCH  14  15
HETATM   15  O   UNL     1      -2.463 -19.976  32.128  1.00  0.00    -0.398 OA
HETATM   16  H   UNL     1      -2.641 -19.099  31.736  1.00  0.00     0.209 HD
ENDBRANCH  14  15
ENDBRANCH  10  14
BRANCH  11  17
HETATM   17  O   UNL     1      -2.272 -21.469  27.773  1.00  0.00    -0.348 OA
BRANCH  17  18
HETATM   18  C   UNL     1      -0.966 -21.162  28.271  1.00  0.00     0.286 C 
HETATM   19  O   UNL     1      -0.291 -20.449  27.241  1.00  0.00    -0.352 OA
HETATM   20  C   UNL     1       1.032 -19.997  27.583  1.00  0.00     0.150 C 
HETATM   21  C   UNL     1       1.771 -20.917  28.559  1.00  0.00     0.068 C 
HETATM   22  C   UNL     1       1.312 -22.356  28.398  1.00  0.00     0.148 C 
HETATM   23  C   UNL     1      -0.203 -22.461  28.674  1.00  0.00     0.168 C 
BRANCH  20  24
HETATM   24  C   UNL     1       0.945 -18.561  28.116  1.00  0.00     0.196 C 
BRANCH  24  25
HETATM   25  O   UNL     1       2.244 -17.978  28.173  1.00  0.00    -0.398 OA
HETATM   26  H   UNL     1       2.498 -17.781  27.250  1.00  0.00     0.209 HD
ENDBRANCH  24  25
ENDBRANCH  20  24
BRANCH  22  27
HETATM   27  O   UNL     1       1.639 -22.788  27.074  1.00  0.00    -0.393 OA
HETATM   28  H   UNL     1       1.993 -23.692  27.166  1.00  0.00     0.210 HD
ENDBRANCH  22  27
BRANCH  23  29
HETATM   29  N   UNL     1      -0.777 -23.680  28.089  1.00  0.00    -0.346 N 
HETATM   30  C   UNL     1      -1.487 -24.548  28.881  1.00  0.00     0.241 C 
HETATM   31  O   UNL     1      -1.455 -24.520  30.104  1.00  0.00    -0.269 OA
HETATM   32  H   UNL     1      -0.921 -23.667  27.080  1.00  0.00     0.163 HD
BRANCH  30  33
HETATM   33  C   UNL     1      -2.397 -25.428  28.121  1.00  0.00     0.080 C 
HETATM   34  C   UNL     1      -2.491 -25.245  26.797  1.00  0.00     0.086 C 
BRANCH  34  35
HETATM   35  C   UNL     1      -3.259 -26.196  25.994  1.00  0.00     0.165 C 
HETATM   36  O   UNL     1      -3.878 -27.163  26.392  1.00  0.00    -0.647 OA
BRANCH  35  37
HETATM   37  O   UNL     1      -3.170 -25.879  24.693  1.00  0.00    -0.773 OA
HETATM   38  H   UNL     1      -2.209 -25.896  24.503  1.00  0.00     0.167 HD
ENDBRANCH  35  37
ENDBRANCH  34  35
ENDBRANCH  30  33
ENDBRANCH  23  29
ENDBRANCH  17  18
ENDBRANCH  11  17
BRANCH  12  39
HETATM   39  O   UNL     1      -4.312 -19.851  27.022  1.00  0.00    -0.391 OA
HETATM   40  H   UNL     1      -3.678 -19.260  27.474  1.00  0.00     0.210 HD
ENDBRANCH  12  39
BRANCH  13  41
HETATM   41  N   UNL     1      -6.859 -19.969  28.059  1.00  0.00    -0.346 N 
HETATM   42  C   UNL     1      -8.177 -20.147  28.375  1.00  0.00     0.241 C 
HETATM   43  O   UNL     1      -8.565 -20.904  29.256  1.00  0.00    -0.269 OA
HETATM   44  H   UNL     1      -6.592 -19.259  27.387  1.00  0.00     0.163 HD
BRANCH  42  45
HETATM   45  C   UNL     1      -9.085 -19.322  27.554  1.00  0.00     0.080 C 
HETATM   46  C   UNL     1     -10.295 -19.797  27.236  1.00  0.00     0.086 C 
BRANCH  46  47
HETATM   47  C   UNL     1     -11.205 -18.954  26.461  1.00  0.00     0.165 C 
HETATM   48  O   UNL     1     -11.209 -18.784  25.257  1.00  0.00    -0.647 OA
BRANCH  47  49
HETATM   49  O   UNL     1     -12.097 -18.364  27.270  1.00  0.00    -0.773 OA
HETATM   50  H   UNL     1     -11.845 -17.418  27.251  1.00  0.00     0.167 HD
ENDBRANCH  47  49
ENDBRANCH  46  47
ENDBRANCH  42  45
ENDBRANCH  13  41
ENDBRANCH   7   8
ENDBRANCH   1   7
BRANCH   2  51
HETATM   51  C   UNL     1      -5.045 -17.511  33.378  1.00  0.00     0.198 C 
BRANCH  51  52
HETATM   52  O   UNL     1      -4.972 -18.933  33.417  1.00  0.00    -0.398 OA
HETATM   53  H   UNL     1      -5.671 -19.254  34.018  1.00  0.00     0.209 HD
ENDBRANCH  51  52
ENDBRANCH   2  51
BRANCH   3  54
HETATM   54  O   UNL     1      -8.327 -16.758  30.410  1.00  0.00    -0.391 OA
HETATM   55  H   UNL     1      -7.458 -16.441  30.096  1.00  0.00     0.210 HD
ENDBRANCH   3  54
BRANCH   4  56
HETATM   56  N   UNL     1     -10.033 -17.174  32.804  1.00  0.00     0.090 N 
HETATM   57  H   UNL     1     -10.442 -17.549  33.652  1.00  0.00     0.313 HD
HETATM   58  H   UNL     1     -10.238 -16.170  32.783  1.00  0.00     0.313 HD
ENDBRANCH   4  56
BRANCH   5  59
HETATM   59  O   UNL     1      -8.526 -14.891  33.203  1.00  0.00    -0.348 OA
BRANCH  59  60
HETATM   60  C   UNL     1      -7.794 -13.697  32.864  1.00  0.00     0.186 C 
HETATM   61  C   UNL     1      -8.626 -12.722  31.991  1.00  0.00     0.179 C 
HETATM   62  O   UNL     1      -8.709 -11.372  32.495  1.00  0.00    -0.349 OA
HETATM   63  C   UNL     1      -7.499 -10.761  32.958  1.00  0.00     0.281 C 
HETATM   64  C   UNL     1      -6.610 -11.726  33.795  1.00  0.00     0.149 C 
HETATM   65  C   UNL     1      -7.357 -13.018  34.176  1.00  0.00     0.172 C 
BRANCH  61  66
HETATM   66  C   UNL     1      -8.098 -12.667  30.549  1.00  0.00     0.198 C 
BRANCH  66  67
HETATM   67  O   UNL     1      -7.356 -13.840  30.237  1.00  0.00    -0.398 OA
HETATM   68  H   UNL     1      -7.494 -14.038  29.290  1.00  0.00     0.209 HD
ENDBRANCH  66  67
ENDBRANCH  61  66
BRANCH  63  69
HETATM   69  O   UNL     1      -7.846  -9.585  33.687  1.00  0.00    -0.349 OA
BRANCH  69  70
HETATM   70  C   UNL     1      -8.113  -8.415  32.901  1.00  0.00     0.186 C 
HETATM   71  C   UNL     1      -9.425  -7.712  33.330  1.00  0.00     0.176 C 
HETATM   72  O   UNL     1      -9.324  -6.264  33.258  1.00  0.00    -0.379 OA
HETATM   73  C   UNL     1      -8.622  -5.793  32.101  1.00  0.00     0.196 C 
HETATM   74  C   UNL     1      -7.142  -6.217  32.130  1.00  0.00     0.139 C 
HETATM   75  C   UNL     1      -6.941  -7.420  33.071  1.00  0.00     0.174 C 
BRANCH  71  76
HETATM   76  C   UNL     1     -10.651  -8.145  32.516  1.00  0.00     0.198 C 
BRANCH  76  77
HETATM   77  O   UNL     1     -10.277  -9.143  31.567  1.00  0.00    -0.398 OA
HETATM   78  H   UNL     1     -11.051  -9.277  30.985  1.00  0.00     0.209 HD
ENDBRANCH  76  77
ENDBRANCH  71  76
BRANCH  74  79
HETATM   79  N   UNL     1      -6.284  -5.099  32.524  1.00  0.00    -0.348 N 
HETATM   80  C   UNL     1      -5.490  -4.435  31.629  1.00  0.00     0.241 C 
HETATM   81  O   UNL     1      -5.406  -4.718  30.441  1.00  0.00    -0.269 OA
HETATM   82  H   UNL     1      -6.180  -4.935  33.518  1.00  0.00     0.163 HD
BRANCH  80  83
HETATM   83  C   UNL     1      -4.759  -3.299  32.231  1.00  0.00     0.080 C 
HETATM   84  C   UNL     1      -4.458  -3.336  33.536  1.00  0.00     0.086 C 
BRANCH  84  85
HETATM   85  C   UNL     1      -3.641  -2.266  34.110  1.00  0.00     0.165 C 
HETATM   86  O   UNL     1      -3.691  -1.081  33.842  1.00  0.00    -0.647 OA
BRANCH  85  87
HETATM   87  O   UNL     1      -2.770  -2.768  34.998  1.00  0.00    -0.773 OA
HETATM   88  H   UNL     1      -2.883  -3.739  34.924  1.00  0.00     0.167 HD
ENDBRANCH  85  87
ENDBRANCH  84  85
ENDBRANCH  80  83
ENDBRANCH  74  79
BRANCH  75  89
HETATM   89  O   UNL     1      -6.829  -6.960  34.431  1.00  0.00    -0.391 OA
HETATM   90  H   UNL     1      -7.047  -6.009  34.450  1.00  0.00     0.210 HD
ENDBRANCH  75  89
ENDBRANCH  69  70
ENDBRANCH  63  69
BRANCH  64  91
HETATM   91  N   UNL     1      -5.745 -11.154  34.841  1.00  0.00    -0.247 NA
HETATM   92  C   UNL     1      -4.703 -10.319  34.541  1.00  0.00     0.221 C 
HETATM   93  O   UNL     1      -4.801  -9.126  34.817  1.00  0.00    -0.275 OA
HETATM   94  H   UNL     1      -6.318 -10.601  35.469  1.00  0.00     0.131 HD
BRANCH  92  95
HETATM   95  C   UNL     1      -3.419 -10.951  34.205  1.00  0.00     0.074 C 
HETATM   96  C   UNL     1      -2.456 -10.101  33.818  1.00  0.00     0.086 C 
BRANCH  96  97
HETATM   97  C   UNL     1      -1.093 -10.551  33.544  1.00  0.00     0.165 C 
HETATM   98  O   UNL     1      -0.178 -10.700  34.332  1.00  0.00    -0.647 OA
BRANCH  97  99
HETATM   99  O   UNL     1      -0.949 -10.775  32.228  1.00  0.00    -0.773 OA
HETATM  100  H   UNL     1      -1.484 -10.071  31.808  1.00  0.00     0.167 HD
ENDBRANCH  97  99
ENDBRANCH  96  97
ENDBRANCH  92  95
ENDBRANCH  64  91
BRANCH  65 101
HETATM  101  O   UNL     1      -8.472 -12.756  35.025  1.00  0.00    -0.391 OA
HETATM  102  H   UNL     1      -9.254 -13.165  34.604  1.00  0.00     0.210 HD
ENDBRANCH  65 101
ENDBRANCH  59  60
ENDBRANCH   5  59
TORSDOF 40
ENDMDL
MODEL 9
REMARK VINA RESULT:      -7.2      3.226     14.693
REMARK WARNING: 32 MAX_TORS EXCEEDED!!!
REMARK  40 active torsions:
REMARK  status: ('A' for Active; 'I' for Inactive)
REMARK    1  A    between atoms: C_1  and  O_44 
REMARK    2  A    between atoms: C_2  and  C_6 
REMARK    3  A    between atoms: C_3  and  O_10 
REMARK    4  A    between atoms: C_4  and  N_12 
REMARK    5  A    between atoms: C_5  and  O_14 
REMARK    6  A    between atoms: C_6  and  O_7 
REMARK    7  A    between atoms: O_14  and  C_27 
REMARK    8  A    between atoms: O_16  and  C_21 
REMARK    9  A    between atoms: C_18  and  C_33 
REMARK   10  A    between atoms: O_20  and  C_33 
REMARK   11  A    between atoms: O_22  and  C_30 
REMARK   12  A    between atoms: O_22  and  C_70 
REMARK   13  A    between atoms: O_23  and  C_24 
REMARK   14  A    between atoms: C_24  and  C_28 
REMARK       I    between atoms: N_29  and  C_32 
REMARK   15  A    between atoms: N_29  and  C_35 
REMARK   16  A    between atoms: C_31  and  C_32 
REMARK   17  A    between atoms: O_38  and  C_43 
REMARK   18  A    between atoms: C_40  and  C_55 
REMARK   19  A    between atoms: O_42  and  C_55 
REMARK   20  A    between atoms: O_44  and  C_52 
REMARK   21  A    between atoms: O_45  and  C_46 
REMARK   22  A    between atoms: C_46  and  C_50 
REMARK   23  A    between atoms: C_49  and  O_87 
REMARK       I    between atoms: N_51  and  C_54 
REMARK   24  A    between atoms: N_51  and  C_57 
REMARK   25  A    between atoms: C_53  and  C_54 
REMARK   26  A    between atoms: O_60  and  C_65 
REMARK   27  A    between atoms: C_62  and  C_76 
REMARK   28  A    between atoms: O_64  and  C_76 
REMARK   29  A    between atoms: O_66  and  C_67 
REMARK   30  A    between atoms: C_67  and  C_71 
REMARK       I    between atoms: N_72  and  C_75 
REMARK   31  A    between atoms: N_72  and  C_78 
REMARK   32  A    between atoms: C_74  and  C_75 
REMARK   33  A    between atoms: O_81  and  C_86 
REMARK   34  A    between atoms: C_83  and  C_98 
REMARK   35  A    between atoms: O_85  and  C_98 
REMARK   36  A    between atoms: O_87  and  C_95 
REMARK   37  A    between atoms: O_88  and  C_89 
REMARK   38  A    between atoms: C_89  and  C_93 
REMARK       I    between atoms: N_94  and  C_97 
REMARK   39  A    between atoms: N_94  and  C_100 
REMARK   40  A    between atoms: C_96  and  C_97 
ROOT
HETATM    1  C   UNL     1      17.663 -17.315  19.443  1.00  0.00     0.186 C 
HETATM    2  C   UNL     1      17.377 -17.345  17.922  1.00  0.00     0.179 C 
HETATM    3  C   UNL     1      17.662 -18.749  20.013  1.00  0.00     0.187 C 
HETATM    4  C   UNL     1      16.346 -19.444  19.595  1.00  0.00     0.303 C 
HETATM    5  C   UNL     1      16.252 -19.511  18.030  1.00  0.00     0.296 C 
HETATM    6  O   UNL     1      17.236 -18.685  17.396  1.00  0.00    -0.349 OA
ENDROOT
BRANCH   1   7
HETATM    7  O   UNL     1      18.932 -16.689  19.694  1.00  0.00    -0.348 OA
BRANCH   7   8
HETATM    8  C   UNL     1      18.882 -15.311  20.086  1.00  0.00     0.286 C 
HETATM    9  O   UNL     1      17.513 -15.013  20.383  1.00  0.00    -0.349 OA
HETATM   10  C   UNL     1      17.262 -13.665  20.829  1.00  0.00     0.180 C 
HETATM   11  C   UNL     1      17.846 -12.588  19.887  1.00  0.00     0.186 C 
HETATM   12  C   UNL     1      18.444 -13.242  18.631  1.00  0.00     0.177 C 
HETATM   13  C   UNL     1      19.429 -14.371  18.968  1.00  0.00     0.171 C 
BRANCH  10  14
HETATM   14  C   UNL     1      17.739 -13.479  22.277  1.00  0.00     0.198 C 
BRANCH  14  15
HETATM   15  O   UNL     1      16.896 -14.176  23.189  1.00  0.00    -0.398 OA
HETATM   16  H   UNL     1      17.234 -15.088  23.276  1.00  0.00     0.209 HD
ENDBRANCH  14  15
ENDBRANCH  10  14
BRANCH  11  17
HETATM   17  O   UNL     1      16.770 -11.730  19.478  1.00  0.00    -0.348 OA
BRANCH  17  18
HETATM   18  C   UNL     1      16.994 -10.319  19.555  1.00  0.00     0.286 C 
HETATM   19  O   UNL     1      16.957  -9.973  20.936  1.00  0.00    -0.352 OA
HETATM   20  C   UNL     1      17.225  -8.588  21.221  1.00  0.00     0.150 C 
HETATM   21  C   UNL     1      16.760  -7.625  20.124  1.00  0.00     0.068 C 
HETATM   22  C   UNL     1      15.559  -8.188  19.384  1.00  0.00     0.148 C 
HETATM   23  C   UNL     1      15.926  -9.538  18.731  1.00  0.00     0.168 C 
BRANCH  20  24
HETATM   24  C   UNL     1      18.720  -8.423  21.522  1.00  0.00     0.196 C 
BRANCH  24  25
HETATM   25  O   UNL     1      18.962  -7.160  22.136  1.00  0.00    -0.398 OA
HETATM   26  H   UNL     1      18.084  -6.762  22.301  1.00  0.00     0.209 HD
ENDBRANCH  24  25
ENDBRANCH  20  24
BRANCH  22  27
HETATM   27  O   UNL     1      14.482  -8.326  20.315  1.00  0.00    -0.393 OA
HETATM   28  H   UNL     1      14.616  -9.186  20.756  1.00  0.00     0.210 HD
ENDBRANCH  22  27
BRANCH  23  29
HETATM   29  N   UNL     1      14.729 -10.333  18.425  1.00  0.00    -0.346 N 
HETATM   30  C   UNL     1      14.386 -10.572  17.117  1.00  0.00     0.241 C 
HETATM   31  O   UNL     1      14.854  -9.946  16.174  1.00  0.00    -0.269 OA
HETATM   32  H   UNL     1      14.401 -10.951  19.165  1.00  0.00     0.163 HD
BRANCH  30  33
HETATM   33  C   UNL     1      13.504 -11.743  16.945  1.00  0.00     0.080 C 
HETATM   34  C   UNL     1      14.058 -12.897  16.549  1.00  0.00     0.086 C 
BRANCH  34  35
HETATM   35  C   UNL     1      13.243 -14.112  16.520  1.00  0.00     0.165 C 
HETATM   36  O   UNL     1      13.387 -15.075  15.793  1.00  0.00    -0.647 OA
BRANCH  35  37
HETATM   37  O   UNL     1      12.247 -14.022  17.413  1.00  0.00    -0.773 OA
HETATM   38  H   UNL     1      12.692 -14.088  18.283  1.00  0.00     0.167 HD
ENDBRANCH  35  37
ENDBRANCH  34  35
ENDBRANCH  30  33
ENDBRANCH  23  29
ENDBRANCH  17  18
ENDBRANCH  11  17
BRANCH  12  39
HETATM   39  O   UNL     1      17.408 -13.717  17.749  1.00  0.00    -0.391 OA
HETATM   40  H   UNL     1      16.575 -13.745  18.261  1.00  0.00     0.210 HD
ENDBRANCH  12  39
BRANCH  13  41
HETATM   41  N   UNL     1      19.809 -15.063  17.737  1.00  0.00    -0.346 N 
HETATM   42  C   UNL     1      21.092 -15.463  17.490  1.00  0.00     0.241 C 
HETATM   43  O   UNL     1      22.042 -15.167  18.205  1.00  0.00    -0.269 OA
HETATM   44  H   UNL     1      19.050 -15.417  17.166  1.00  0.00     0.163 HD
BRANCH  42  45
HETATM   45  C   UNL     1      21.214 -16.301  16.281  1.00  0.00     0.080 C 
HETATM   46  C   UNL     1      20.600 -17.490  16.243  1.00  0.00     0.086 C 
BRANCH  46  47
HETATM   47  C   UNL     1      20.688 -18.293  15.024  1.00  0.00     0.165 C 
HETATM   48  O   UNL     1      20.197 -18.044  13.939  1.00  0.00    -0.647 OA
BRANCH  47  49
HETATM   49  O   UNL     1      21.424 -19.394  15.241  1.00  0.00    -0.773 OA
HETATM   50  H   UNL     1      22.208 -19.271  14.667  1.00  0.00     0.167 HD
ENDBRANCH  47  49
ENDBRANCH  46  47
ENDBRANCH  42  45
ENDBRANCH  13  41
ENDBRANCH   7   8
ENDBRANCH   1   7
BRANCH   2  51
HETATM   51  C   UNL     1      16.140 -16.507  17.563  1.00  0.00     0.198 C 
BRANCH  51  52
HETATM   52  O   UNL     1      15.459 -16.078  18.737  1.00  0.00    -0.398 OA
HETATM   53  H   UNL     1      15.619 -16.739  19.438  1.00  0.00     0.209 HD
ENDBRANCH  51  52
ENDBRANCH   2  51
BRANCH   3  54
HETATM   54  O   UNL     1      18.802 -19.507  19.579  1.00  0.00    -0.391 OA
HETATM   55  H   UNL     1      18.619 -20.450  19.756  1.00  0.00     0.210 HD
ENDBRANCH   3  54
BRANCH   4  56
HETATM   56  N   UNL     1      16.194 -20.725  20.307  1.00  0.00     0.090 N 
HETATM   57  H   UNL     1      15.265 -21.113  20.189  1.00  0.00     0.313 HD
HETATM   58  H   UNL     1      16.858 -21.391  19.898  1.00  0.00     0.313 HD
ENDBRANCH   4  56
BRANCH   5  59
HETATM   59  O   UNL     1      16.471 -20.855  17.559  1.00  0.00    -0.348 OA
BRANCH  59  60
HETATM   60  C   UNL     1      15.988 -21.117  16.228  1.00  0.00     0.186 C 
HETATM   61  C   UNL     1      14.849 -22.171  16.210  1.00  0.00     0.179 C 
HETATM   62  O   UNL     1      13.646 -21.757  15.529  1.00  0.00    -0.349 OA
HETATM   63  C   UNL     1      13.791 -21.119  14.255  1.00  0.00     0.281 C 
HETATM   64  C   UNL     1      14.959 -20.092  14.218  1.00  0.00     0.149 C 
HETATM   65  C   UNL     1      15.506 -19.785  15.624  1.00  0.00     0.172 C 
BRANCH  61  66
HETATM   66  C   UNL     1      15.320 -23.499  15.595  1.00  0.00     0.198 C 
BRANCH  66  67
HETATM   67  O   UNL     1      16.729 -23.645  15.726  1.00  0.00    -0.398 OA
HETATM   68  H   UNL     1      17.023 -24.308  15.071  1.00  0.00     0.209 HD
ENDBRANCH  66  67
ENDBRANCH  61  66
BRANCH  63  69
HETATM   69  O   UNL     1      12.542 -20.521  13.912  1.00  0.00    -0.349 OA
BRANCH  69  70
HETATM   70  C   UNL     1      11.834 -21.129  12.822  1.00  0.00     0.186 C 
HETATM   71  C   UNL     1      10.644 -20.261  12.344  1.00  0.00     0.176 C 
HETATM   72  O   UNL     1      10.470 -20.307  10.901  1.00  0.00    -0.379 OA
HETATM   73  C   UNL     1      10.656 -21.614  10.342  1.00  0.00     0.196 C 
HETATM   74  C   UNL     1      12.109 -22.094  10.506  1.00  0.00     0.139 C 
HETATM   75  C   UNL     1      12.812 -21.321  11.637  1.00  0.00     0.174 C 
BRANCH  71  76
HETATM   76  C   UNL     1       9.307 -20.637  12.997  1.00  0.00     0.198 C 
BRANCH  76  77
HETATM   77  O   UNL     1       8.916 -19.624  13.924  1.00  0.00    -0.398 OA
HETATM   78  H   UNL     1       9.166 -18.769  13.521  1.00  0.00     0.209 HD
ENDBRANCH  76  77
ENDBRANCH  71  76
BRANCH  74  79
HETATM   79  N   UNL     1      12.850 -21.967   9.250  1.00  0.00    -0.348 N 
HETATM   80  C   UNL     1      13.973 -22.701   8.984  1.00  0.00     0.241 C 
HETATM   81  O   UNL     1      14.470 -23.505   9.762  1.00  0.00    -0.269 OA
HETATM   82  H   UNL     1      12.589 -21.196   8.646  1.00  0.00     0.163 HD
BRANCH  80  83
HETATM   83  C   UNL     1      14.519 -22.460   7.631  1.00  0.00     0.080 C 
HETATM   84  C   UNL     1      14.225 -21.312   7.005  1.00  0.00     0.086 C 
BRANCH  84  85
HETATM   85  C   UNL     1      14.851 -21.024   5.714  1.00  0.00     0.165 C 
HETATM   86  O   UNL     1      15.329 -21.826   4.935  1.00  0.00    -0.647 OA
BRANCH  85  87
HETATM   87  O   UNL     1      14.858 -19.703   5.483  1.00  0.00    -0.773 OA
HETATM   88  H   UNL     1      15.076 -19.625   4.531  1.00  0.00     0.167 HD
ENDBRANCH  85  87
ENDBRANCH  84  85
ENDBRANCH  80  83
ENDBRANCH  74  79
BRANCH  75  89
HETATM   89  O   UNL     1      13.294 -20.059  11.137  1.00  0.00    -0.391 OA
HETATM   90  H   UNL     1      14.169 -20.206  10.733  1.00  0.00     0.210 HD
ENDBRANCH  75  89
ENDBRANCH  69  70
ENDBRANCH  63  69
BRANCH  64  91
HETATM   91  N   UNL     1      14.851 -18.938  13.307  1.00  0.00    -0.247 NA
HETATM   92  C   UNL     1      15.908 -18.100  13.073  1.00  0.00     0.221 C 
HETATM   93  O   UNL     1      16.467 -18.142  11.980  1.00  0.00    -0.275 OA
HETATM   94  H   UNL     1      14.609 -19.277  12.383  1.00  0.00     0.131 HD
BRANCH  92  95
HETATM   95  C   UNL     1      16.100 -16.992  14.019  1.00  0.00     0.074 C 
HETATM   96  C   UNL     1      17.212 -16.267  13.819  1.00  0.00     0.086 C 
BRANCH  96  97
HETATM   97  C   UNL     1      17.504 -15.070  14.605  1.00  0.00     0.165 C 
HETATM   98  O   UNL     1      18.550 -14.763  15.146  1.00  0.00    -0.647 OA
BRANCH  97  99
HETATM   99  O   UNL     1      16.404 -14.305  14.687  1.00  0.00    -0.773 OA
HETATM  100  H   UNL     1      16.675 -13.561  15.264  1.00  0.00     0.167 HD
ENDBRANCH  97  99
ENDBRANCH  96  97
ENDBRANCH  92  95
ENDBRANCH  64  91
BRANCH  65 101
HETATM  101  O   UNL     1      14.527 -19.160  16.450  1.00  0.00    -0.391 OA
HETATM  102  H   UNL     1      13.739 -19.738  16.446  1.00  0.00     0.210 HD
ENDBRANCH  65 101
ENDBRANCH  59  60
ENDBRANCH   5  59
TORSDOF 40
ENDMDL
