MODEL 1
REMARK VINA RESULT:      -6.4      0.000      0.000
REMARK WARNING: 32 MAX_TORS EXCEEDED!!!
REMARK  44 active torsions:
REMARK  status: ('A' for Active; 'I' for Inactive)
REMARK    1  A    between atoms: C_1  and  O_44 
REMARK    2  A    between atoms: C_2  and  C_6 
REMARK    3  A    between atoms: C_3  and  O_10 
REMARK    4  A    between atoms: C_4  and  N_12 
REMARK    5  A    between atoms: C_5  and  O_14 
REMARK    6  A    between atoms: C_6  and  O_7 
REMARK    7  A    between atoms: O_14  and  C_27 
REMARK    8  A    between atoms: O_16  and  C_21 
REMARK    9  A    between atoms: C_18  and  C_33 
REMARK   10  A    between atoms: O_20  and  C_33 
REMARK   11  A    between atoms: O_22  and  C_30 
REMARK   12  A    between atoms: O_22  and  C_70 
REMARK   13  A    between atoms: O_23  and  C_24 
REMARK   14  A    between atoms: C_24  and  C_28 
REMARK   15  A    between atoms: C_28  and  C_31 
REMARK       I    between atoms: N_29  and  C_32 
REMARK   16  A    between atoms: N_29  and  C_35 
REMARK   17  A    between atoms: C_31  and  C_32 
REMARK   18  A    between atoms: O_38  and  C_43 
REMARK   19  A    between atoms: C_40  and  C_55 
REMARK   20  A    between atoms: O_42  and  C_55 
REMARK   21  A    between atoms: O_44  and  C_52 
REMARK   22  A    between atoms: O_45  and  C_46 
REMARK   23  A    between atoms: C_46  and  C_50 
REMARK   24  A    between atoms: C_49  and  O_87 
REMARK   25  A    between atoms: C_50  and  C_53 
REMARK       I    between atoms: N_51  and  C_54 
REMARK   26  A    between atoms: N_51  and  C_57 
REMARK   27  A    between atoms: C_53  and  C_54 
REMARK   28  A    between atoms: O_60  and  C_65 
REMARK   29  A    between atoms: C_62  and  C_76 
REMARK   30  A    between atoms: O_64  and  C_76 
REMARK   31  A    between atoms: O_66  and  C_67 
REMARK   32  A    between atoms: C_67  and  C_71 
REMARK   33  A    between atoms: C_71  and  C_74 
REMARK       I    between atoms: N_72  and  C_75 
REMARK   34  A    between atoms: N_72  and  C_78 
REMARK   35  A    between atoms: C_74  and  C_75 
REMARK   36  A    between atoms: O_81  and  C_86 
REMARK   37  A    between atoms: C_83  and  C_98 
REMARK   38  A    between atoms: O_85  and  C_98 
REMARK   39  A    between atoms: O_87  and  C_95 
REMARK   40  A    between atoms: O_88  and  C_89 
REMARK   41  A    between atoms: C_89  and  C_93 
REMARK   42  A    between atoms: C_93  and  C_96 
REMARK       I    between atoms: N_94  and  C_97 
REMARK   43  A    between atoms: N_94  and  C_100 
REMARK   44  A    between atoms: C_96  and  C_97 
ROOT
ATOM      1  C   UNL     1      15.512 -14.699  18.023  1.00  0.00     0.186 C 
ATOM      2  C   UNL     1      16.533 -13.562  17.793  1.00  0.00     0.179 C 
ATOM      3  C   UNL     1      14.919 -14.613  19.442  1.00  0.00     0.187 C 
ATOM      4  C   UNL     1      16.066 -14.531  20.471  1.00  0.00     0.303 C 
ATOM      5  C   UNL     1      16.962 -13.275  20.178  1.00  0.00     0.296 C 
ATOM      6  O   UNL     1      16.644 -12.666  18.921  1.00  0.00    -0.349 OA
ENDROOT
BRANCH   1   7
ATOM      7  O   UNL     1      14.447 -14.604  17.063  1.00  0.00    -0.348 OA
BRANCH   7   8
ATOM      8  C   UNL     1      14.512 -15.530  15.973  1.00  0.00     0.286 C 
ATOM      9  O   UNL     1      15.622 -16.397  16.231  1.00  0.00    -0.349 OA
ATOM     10  C   UNL     1      15.828 -17.428  15.248  1.00  0.00     0.180 C 
ATOM     11  C   UNL     1      15.901 -16.890  13.801  1.00  0.00     0.186 C 
ATOM     12  C   UNL     1      15.860 -15.354  13.799  1.00  0.00     0.177 C 
ATOM     13  C   UNL     1      14.680 -14.795  14.607  1.00  0.00     0.170 C 
BRANCH  10  14
ATOM     14  C   UNL     1      14.772 -18.535  15.394  1.00  0.00     0.198 C 
BRANCH  14  15
ATOM     15  O   UNL     1      14.130 -18.804  14.151  1.00  0.00    -0.398 OA
ATOM     16  H   UNL     1      14.740 -19.333  13.603  1.00  0.00     0.209 HD
ENDBRANCH  14  15
ENDBRANCH  10  14
BRANCH  11  17
ATOM     17  O   UNL     1      17.155 -17.308  13.240  1.00  0.00    -0.348 OA
BRANCH  17  18
ATOM     18  C   UNL     1      18.115 -17.865  14.139  1.00  0.00     0.286 C 
ATOM     19  O   UNL     1      19.342 -17.184  13.905  1.00  0.00    -0.352 OA
ATOM     20  C   UNL     1      20.407 -17.540  14.805  1.00  0.00     0.150 C 
ATOM     21  C   UNL     1      20.351 -18.993  15.287  1.00  0.00     0.068 C 
ATOM     22  C   UNL     1      19.705 -19.884  14.239  1.00  0.00     0.148 C 
ATOM     23  C   UNL     1      18.267 -19.405  13.941  1.00  0.00     0.168 C 
BRANCH  20  24
ATOM     24  C   UNL     1      20.413 -16.554  15.981  1.00  0.00     0.196 C 
BRANCH  24  25
ATOM     25  O   UNL     1      20.830 -15.264  15.539  1.00  0.00    -0.398 OA
ATOM     26  H   UNL     1      20.701 -14.660  16.298  1.00  0.00     0.209 HD
ENDBRANCH  24  25
ENDBRANCH  20  24
BRANCH  22  27
ATOM     27  O   UNL     1      20.525 -19.861  13.067  1.00  0.00    -0.393 OA
ATOM     28  H   UNL     1      21.420 -19.616  13.370  1.00  0.00     0.210 HD
ENDBRANCH  22  27
BRANCH  23  29
ATOM     29  N   UNL     1      17.803 -19.886  12.631  1.00  0.00    -0.349 N 
ATOM     30  C   UNL     1      16.661 -20.650  12.542  1.00  0.00     0.218 C 
ATOM     31  O   UNL     1      16.123 -21.134  13.533  1.00  0.00    -0.274 OA
ATOM     32  H   UNL     1      18.163 -19.403  11.808  1.00  0.00     0.163 HD
BRANCH  30  33
ATOM     33  C   UNL     1      16.130 -20.832  11.138  1.00  0.00     0.113 C 
BRANCH  33  34
ATOM     34  C   UNL     1      16.068 -19.486  10.420  1.00  0.00     0.119 C 
BRANCH  34  35
ATOM     35  C   UNL     1      14.740 -18.812  10.611  1.00  0.00     0.139 C 
ATOM     36  O   UNL     1      14.525 -17.741  11.145  1.00  0.00    -0.650 OA
BRANCH  35  37
ATOM     37  O   UNL     1      13.726 -19.556  10.125  1.00  0.00    -0.776 OA
ATOM     38  H   UNL     1      13.842 -19.523   9.152  1.00  0.00     0.167 HD
ENDBRANCH  35  37
ENDBRANCH  34  35
ENDBRANCH  33  34
ENDBRANCH  30  33
ENDBRANCH  23  29
ENDBRANCH  17  18
ENDBRANCH  11  17
BRANCH  12  39
ATOM     39  O   UNL     1      17.104 -14.802  14.272  1.00  0.00    -0.391 OA
ATOM     40  H   UNL     1      17.040 -14.719  15.243  1.00  0.00     0.210 HD
ENDBRANCH  12  39
BRANCH  13  41
ATOM     41  N   UNL     1      14.819 -13.345  14.717  1.00  0.00    -0.349 N 
ATOM     42  C   UNL     1      13.749 -12.518  14.949  1.00  0.00     0.218 C 
ATOM     43  O   UNL     1      12.590 -12.918  14.915  1.00  0.00    -0.274 OA
ATOM     44  H   UNL     1      15.758 -12.987  14.871  1.00  0.00     0.163 HD
BRANCH  42  45
ATOM     45  C   UNL     1      14.150 -11.082  15.189  1.00  0.00     0.113 C 
BRANCH  45  46
ATOM     46  C   UNL     1      13.652 -10.576  16.534  1.00  0.00     0.119 C 
BRANCH  46  47
ATOM     47  C   UNL     1      14.804 -10.283  17.450  1.00  0.00     0.139 C 
ATOM     48  O   UNL     1      15.856  -9.736  17.165  1.00  0.00    -0.650 OA
BRANCH  47  49
ATOM     49  O   UNL     1      14.558 -10.676  18.715  1.00  0.00    -0.776 OA
ATOM     50  H   UNL     1      15.419 -11.022  19.031  1.00  0.00     0.167 HD
ENDBRANCH  47  49
ENDBRANCH  46  47
ENDBRANCH  45  46
ENDBRANCH  42  45
ENDBRANCH  13  41
ENDBRANCH   7   8
ENDBRANCH   1   7
BRANCH   2  51
ATOM     51  C   UNL     1      17.918 -14.114  17.416  1.00  0.00     0.198 C 
BRANCH  51  52
ATOM     52  O   UNL     1      18.411 -13.486  16.237  1.00  0.00    -0.398 OA
ATOM     53  H   UNL     1      17.987 -12.609  16.163  1.00  0.00     0.209 HD
ENDBRANCH  51  52
ENDBRANCH   2  51
BRANCH   3  54
ATOM     54  O   UNL     1      14.031 -13.492  19.595  1.00  0.00    -0.391 OA
ATOM     55  H   UNL     1      14.528 -12.687  19.351  1.00  0.00     0.210 HD
ENDBRANCH   3  54
BRANCH   4  56
ATOM     56  N   UNL     1      15.504 -14.636  21.830  1.00  0.00     0.090 N 
ATOM     57  H   UNL     1      15.931 -15.391  22.352  1.00  0.00     0.313 HD
ATOM     58  H   UNL     1      15.742 -13.770  22.328  1.00  0.00     0.313 HD
ENDBRANCH   4  56
BRANCH   5  59
ATOM     59  O   UNL     1      16.779 -12.264  21.188  1.00  0.00    -0.348 OA
BRANCH  59  60
ATOM     60  C   UNL     1      17.968 -11.530  21.536  1.00  0.00     0.186 C 
ATOM     61  C   UNL     1      19.253 -12.197  20.978  1.00  0.00     0.179 C 
ATOM     62  O   UNL     1      20.100 -11.325  20.202  1.00  0.00    -0.349 OA
ATOM     63  C   UNL     1      20.364 -10.021  20.726  1.00  0.00     0.281 C 
ATOM     64  C   UNL     1      19.103  -9.331  21.318  1.00  0.00     0.149 C 
ATOM     65  C   UNL     1      17.811 -10.098  20.989  1.00  0.00     0.172 C 
BRANCH  61  66
ATOM     66  C   UNL     1      20.100 -12.819  22.100  1.00  0.00     0.198 C 
BRANCH  66  67
ATOM     67  O   UNL     1      21.338 -13.300  21.589  1.00  0.00    -0.398 OA
ATOM     68  H   UNL     1      21.549 -12.789  20.783  1.00  0.00     0.209 HD
ENDBRANCH  66  67
ENDBRANCH  61  66
BRANCH  63  69
ATOM     69  O   UNL     1      20.956  -9.243  19.691  1.00  0.00    -0.349 OA
BRANCH  69  70
ATOM     70  C   UNL     1      22.374  -9.055  19.775  1.00  0.00     0.186 C 
ATOM     71  C   UNL     1      22.860  -8.998  21.243  1.00  0.00     0.176 C 
ATOM     72  O   UNL     1      24.139  -9.659  21.427  1.00  0.00    -0.379 OA
ATOM     73  C   UNL     1      25.073  -9.412  20.370  1.00  0.00     0.196 C 
ATOM     74  C   UNL     1      24.593 -10.020  19.040  1.00  0.00     0.139 C 
ATOM     75  C   UNL     1      23.067 -10.238  19.057  1.00  0.00     0.174 C 
BRANCH  71  76
ATOM     76  C   UNL     1      22.973  -7.568  21.791  1.00  0.00     0.198 C 
BRANCH  76  77
ATOM     77  O   UNL     1      21.722  -6.896  21.660  1.00  0.00    -0.398 OA
ATOM     78  H   UNL     1      21.672  -6.256  22.397  1.00  0.00     0.209 HD
ENDBRANCH  76  77
ENDBRANCH  71  76
BRANCH  74  79
ATOM     79  N   UNL     1      25.276 -11.282  18.761  1.00  0.00    -0.352 N 
ATOM     80  C   UNL     1      25.729 -11.618  17.506  1.00  0.00     0.218 C 
ATOM     81  O   UNL     1      25.662 -10.862  16.544  1.00  0.00    -0.274 OA
ATOM     82  H   UNL     1      25.149 -12.020  19.448  1.00  0.00     0.163 HD
BRANCH  80  83
ATOM     83  C   UNL     1      26.354 -12.994  17.451  1.00  0.00     0.113 C 
BRANCH  83  84
ATOM     84  C   UNL     1      25.512 -14.027  18.188  1.00  0.00     0.119 C 
BRANCH  84  85
ATOM     85  C   UNL     1      24.163 -14.175  17.550  1.00  0.00     0.139 C 
ATOM     86  O   UNL     1      23.115 -13.669  17.915  1.00  0.00    -0.650 OA
BRANCH  85  87
ATOM     87  O   UNL     1      24.199 -14.971  16.466  1.00  0.00    -0.776 OA
ATOM     88  H   UNL     1      23.280 -14.965  16.128  1.00  0.00     0.167 HD
ENDBRANCH  85  87
ENDBRANCH  84  85
ENDBRANCH  83  84
ENDBRANCH  80  83
ENDBRANCH  74  79
BRANCH  75  89
ATOM     89  O   UNL     1      22.771 -11.500  19.691  1.00  0.00    -0.391 OA
ATOM     90  H   UNL     1      22.114 -11.967  19.142  1.00  0.00     0.210 HD
ENDBRANCH  75  89
ENDBRANCH  69  70
ENDBRANCH  63  69
BRANCH  64  91
ATOM     91  N   UNL     1      19.002  -7.861  21.273  1.00  0.00    -0.251 NA
ATOM     92  C   UNL     1      18.243  -7.143  22.157  1.00  0.00     0.198 C 
ATOM     93  O   UNL     1      18.847  -6.398  22.933  1.00  0.00    -0.280 OA
ATOM     94  H   UNL     1      19.927  -7.453  21.357  1.00  0.00     0.131 HD
BRANCH  92  95
ATOM     95  C   UNL     1      16.740  -7.149  22.056  1.00  0.00     0.107 C 
BRANCH  95  96
ATOM     96  C   UNL     1      16.375  -6.356  20.801  1.00  0.00     0.118 C 
BRANCH  96  97
ATOM     97  C   UNL     1      15.851  -7.212  19.690  1.00  0.00     0.139 C 
ATOM     98  O   UNL     1      14.726  -7.665  19.563  1.00  0.00    -0.650 OA
BRANCH  97  99
ATOM     99  O   UNL     1      16.775  -7.396  18.723  1.00  0.00    -0.776 OA
ATOM    100  H   UNL     1      16.274  -7.277  17.891  1.00  0.00     0.167 HD
ENDBRANCH  97  99
ENDBRANCH  96  97
ENDBRANCH  95  96
ENDBRANCH  92  95
ENDBRANCH  64  91
BRANCH  65 101
ATOM    101  O   UNL     1      17.532 -10.105  19.591  1.00  0.00    -0.391 OA
ATOM    102  H   UNL     1      18.388 -10.001  19.131  1.00  0.00     0.210 HD
ENDBRANCH  65 101
ENDBRANCH  59  60
ENDBRANCH   5  59
TORSDOF 44
ENDMDL
MODEL 2
REMARK VINA RESULT:      -6.1      4.856     10.584
REMARK WARNING: 32 MAX_TORS EXCEEDED!!!
REMARK  44 active torsions:
REMARK  status: ('A' for Active; 'I' for Inactive)
REMARK    1  A    between atoms: C_1  and  O_44 
REMARK    2  A    between atoms: C_2  and  C_6 
REMARK    3  A    between atoms: C_3  and  O_10 
REMARK    4  A    between atoms: C_4  and  N_12 
REMARK    5  A    between atoms: C_5  and  O_14 
REMARK    6  A    between atoms: C_6  and  O_7 
REMARK    7  A    between atoms: O_14  and  C_27 
REMARK    8  A    between atoms: O_16  and  C_21 
REMARK    9  A    between atoms: C_18  and  C_33 
REMARK   10  A    between atoms: O_20  and  C_33 
REMARK   11  A    between atoms: O_22  and  C_30 
REMARK   12  A    between atoms: O_22  and  C_70 
REMARK   13  A    between atoms: O_23  and  C_24 
REMARK   14  A    between atoms: C_24  and  C_28 
REMARK   15  A    between atoms: C_28  and  C_31 
REMARK       I    between atoms: N_29  and  C_32 
REMARK   16  A    between atoms: N_29  and  C_35 
REMARK   17  A    between atoms: C_31  and  C_32 
REMARK   18  A    between atoms: O_38  and  C_43 
REMARK   19  A    between atoms: C_40  and  C_55 
REMARK   20  A    between atoms: O_42  and  C_55 
REMARK   21  A    between atoms: O_44  and  C_52 
REMARK   22  A    between atoms: O_45  and  C_46 
REMARK   23  A    between atoms: C_46  and  C_50 
REMARK   24  A    between atoms: C_49  and  O_87 
REMARK   25  A    between atoms: C_50  and  C_53 
REMARK       I    between atoms: N_51  and  C_54 
REMARK   26  A    between atoms: N_51  and  C_57 
REMARK   27  A    between atoms: C_53  and  C_54 
REMARK   28  A    between atoms: O_60  and  C_65 
REMARK   29  A    between atoms: C_62  and  C_76 
REMARK   30  A    between atoms: O_64  and  C_76 
REMARK   31  A    between atoms: O_66  and  C_67 
REMARK   32  A    between atoms: C_67  and  C_71 
REMARK   33  A    between atoms: C_71  and  C_74 
REMARK       I    between atoms: N_72  and  C_75 
REMARK   34  A    between atoms: N_72  and  C_78 
REMARK   35  A    between atoms: C_74  and  C_75 
REMARK   36  A    between atoms: O_81  and  C_86 
REMARK   37  A    between atoms: C_83  and  C_98 
REMARK   38  A    between atoms: O_85  and  C_98 
REMARK   39  A    between atoms: O_87  and  C_95 
REMARK   40  A    between atoms: O_88  and  C_89 
REMARK   41  A    between atoms: C_89  and  C_93 
REMARK   42  A    between atoms: C_93  and  C_96 
REMARK       I    between atoms: N_94  and  C_97 
REMARK   43  A    between atoms: N_94  and  C_100 
REMARK   44  A    between atoms: C_96  and  C_97 
ROOT
ATOM      1  C   UNL     1      15.723 -20.144  10.987  1.00  0.00     0.186 C 
ATOM      2  C   UNL     1      16.747 -19.222  11.686  1.00  0.00     0.179 C 
ATOM      3  C   UNL     1      14.324 -19.965  11.608  1.00  0.00     0.187 C 
ATOM      4  C   UNL     1      14.422 -20.119  13.140  1.00  0.00     0.303 C 
ATOM      5  C   UNL     1      15.417 -19.055  13.726  1.00  0.00     0.296 C 
ATOM      6  O   UNL     1      16.151 -18.380  12.698  1.00  0.00    -0.349 OA
ENDROOT
BRANCH   1   7
ATOM      7  O   UNL     1      15.657 -19.832   9.587  1.00  0.00    -0.348 OA
BRANCH   7   8
ATOM      8  C   UNL     1      15.818 -20.944   8.697  1.00  0.00     0.286 C 
ATOM      9  O   UNL     1      16.919 -20.630   7.838  1.00  0.00    -0.349 OA
ATOM     10  C   UNL     1      17.258 -21.656   6.887  1.00  0.00     0.180 C 
ATOM     11  C   UNL     1      16.051 -22.137   6.048  1.00  0.00     0.186 C 
ATOM     12  C   UNL     1      14.808 -21.291   6.367  1.00  0.00     0.177 C 
ATOM     13  C   UNL     1      14.522 -21.211   7.873  1.00  0.00     0.170 C 
BRANCH  10  14
ATOM     14  C   UNL     1      17.975 -22.824   7.581  1.00  0.00     0.198 C 
BRANCH  14  15
ATOM     15  O   UNL     1      17.182 -24.008   7.552  1.00  0.00    -0.398 OA
ATOM     16  H   UNL     1      16.916 -24.218   8.467  1.00  0.00     0.209 HD
ENDBRANCH  14  15
ENDBRANCH  10  14
BRANCH  11  17
ATOM     17  O   UNL     1      16.378 -21.953   4.663  1.00  0.00    -0.348 OA
BRANCH  17  18
ATOM     18  C   UNL     1      15.442 -22.450   3.704  1.00  0.00     0.286 C 
ATOM     19  O   UNL     1      15.440 -23.868   3.828  1.00  0.00    -0.352 OA
ATOM     20  C   UNL     1      14.466 -24.540   3.008  1.00  0.00     0.150 C 
ATOM     21  C   UNL     1      14.175 -23.828   1.682  1.00  0.00     0.068 C 
ATOM     22  C   UNL     1      15.394 -23.058   1.205  1.00  0.00     0.148 C 
ATOM     23  C   UNL     1      15.806 -22.001   2.255  1.00  0.00     0.168 C 
BRANCH  20  24
ATOM     24  C   UNL     1      13.187 -24.750   3.830  1.00  0.00     0.196 C 
BRANCH  24  25
ATOM     25  O   UNL     1      12.158 -23.876   3.370  1.00  0.00    -0.398 OA
ATOM     26  H   UNL     1      11.359 -24.100   3.887  1.00  0.00     0.209 HD
ENDBRANCH  24  25
ENDBRANCH  20  24
BRANCH  22  27
ATOM     27  O   UNL     1      16.446 -23.996   0.957  1.00  0.00    -0.393 OA
ATOM     28  H   UNL     1      16.078 -24.654   0.337  1.00  0.00     0.210 HD
ENDBRANCH  22  27
BRANCH  23  29
ATOM     29  N   UNL     1      17.211 -21.601   2.089  1.00  0.00    -0.349 N 
ATOM     30  C   UNL     1      17.523 -20.309   1.733  1.00  0.00     0.218 C 
ATOM     31  O   UNL     1      16.672 -19.521   1.333  1.00  0.00    -0.274 OA
ATOM     32  H   UNL     1      17.915 -22.198   2.525  1.00  0.00     0.163 HD
BRANCH  30  33
ATOM     33  C   UNL     1      18.984 -19.947   1.881  1.00  0.00     0.113 C 
BRANCH  33  34
ATOM     34  C   UNL     1      19.483 -20.333   3.272  1.00  0.00     0.119 C 
BRANCH  34  35
ATOM     35  C   UNL     1      18.951 -19.412   4.332  1.00  0.00     0.139 C 
ATOM     36  O   UNL     1      19.591 -18.691   5.073  1.00  0.00    -0.650 OA
BRANCH  35  37
ATOM     37  O   UNL     1      17.607 -19.470   4.416  1.00  0.00    -0.776 OA
ATOM     38  H   UNL     1      17.359 -18.673   4.930  1.00  0.00     0.167 HD
ENDBRANCH  35  37
ENDBRANCH  34  35
ENDBRANCH  33  34
ENDBRANCH  30  33
ENDBRANCH  23  29
ENDBRANCH  17  18
ENDBRANCH  11  17
BRANCH  12  39
ATOM     39  O   UNL     1      14.921 -19.972   5.801  1.00  0.00    -0.391 OA
ATOM     40  H   UNL     1      15.007 -19.340   6.540  1.00  0.00     0.210 HD
ENDBRANCH  12  39
BRANCH  13  41
ATOM     41  N   UNL     1      13.451 -20.243   8.105  1.00  0.00    -0.349 N 
ATOM     42  C   UNL     1      12.138 -20.616   8.239  1.00  0.00     0.218 C 
ATOM     43  O   UNL     1      11.752 -21.759   8.010  1.00  0.00    -0.274 OA
ATOM     44  H   UNL     1      13.733 -19.318   8.417  1.00  0.00     0.163 HD
BRANCH  42  45
ATOM     45  C   UNL     1      11.234 -19.474   8.635  1.00  0.00     0.113 C 
BRANCH  45  46
ATOM     46  C   UNL     1       9.766 -19.834   8.468  1.00  0.00     0.119 C 
BRANCH  46  47
ATOM     47  C   UNL     1       9.060 -18.808   7.631  1.00  0.00     0.139 C 
ATOM     48  O   UNL     1       7.938 -18.360   7.800  1.00  0.00    -0.650 OA
BRANCH  47  49
ATOM     49  O   UNL     1       9.828 -18.364   6.618  1.00  0.00    -0.776 OA
ATOM     50  H   UNL     1      10.681 -18.830   6.741  1.00  0.00     0.167 HD
ENDBRANCH  47  49
ENDBRANCH  46  47
ENDBRANCH  45  46
ENDBRANCH  42  45
ENDBRANCH  13  41
ENDBRANCH   7   8
ENDBRANCH   1   7
BRANCH   2  51
ATOM     51  C   UNL     1      17.914 -20.025  12.285  1.00  0.00     0.198 C 
BRANCH  51  52
ATOM     52  O   UNL     1      18.981 -19.162  12.665  1.00  0.00    -0.398 OA
ATOM     53  H   UNL     1      18.778 -18.804  13.551  1.00  0.00     0.209 HD
ENDBRANCH  51  52
ENDBRANCH   2  51
BRANCH   3  54
ATOM     54  O   UNL     1      13.736 -18.696  11.271  1.00  0.00    -0.391 OA
ATOM     55  H   UNL     1      14.355 -17.998  11.564  1.00  0.00     0.210 HD
ENDBRANCH   3  54
BRANCH   4  56
ATOM     56  N   UNL     1      13.063 -20.133  13.713  1.00  0.00     0.090 N 
ATOM     57  H   UNL     1      12.605 -19.237  13.607  1.00  0.00     0.313 HD
ATOM     58  H   UNL     1      12.509 -20.806  13.172  1.00  0.00     0.313 HD
ENDBRANCH   4  56
BRANCH   5  59
ATOM     59  O   UNL     1      14.712 -18.042  14.468  1.00  0.00    -0.348 OA
BRANCH  59  60
ATOM     60  C   UNL     1      15.481 -16.862  14.767  1.00  0.00     0.186 C 
ATOM     61  C   UNL     1      14.654 -15.563  14.582  1.00  0.00     0.179 C 
ATOM     62  O   UNL     1      14.647 -14.681  15.724  1.00  0.00    -0.349 OA
ATOM     63  C   UNL     1      15.898 -14.427  16.371  1.00  0.00     0.281 C 
ATOM     64  C   UNL     1      16.766 -15.704  16.550  1.00  0.00     0.149 C 
ATOM     65  C   UNL     1      15.989 -16.988  16.216  1.00  0.00     0.172 C 
BRANCH  61  66
ATOM     66  C   UNL     1      15.125 -14.762  13.358  1.00  0.00     0.198 C 
BRANCH  66  67
ATOM     67  O   UNL     1      14.848 -13.376  13.526  1.00  0.00    -0.398 OA
ATOM     68  H   UNL     1      15.673 -12.937  13.810  1.00  0.00     0.209 HD
ENDBRANCH  66  67
ENDBRANCH  61  66
BRANCH  63  69
ATOM     69  O   UNL     1      15.628 -13.792  17.616  1.00  0.00    -0.349 OA
BRANCH  69  70
ATOM     70  C   UNL     1      15.171 -12.436  17.547  1.00  0.00     0.186 C 
ATOM     71  C   UNL     1      13.681 -12.310  17.949  1.00  0.00     0.176 C 
ATOM     72  O   UNL     1      13.414 -11.105  18.711  1.00  0.00    -0.379 OA
ATOM     73  C   UNL     1      14.108  -9.951  18.223  1.00  0.00     0.196 C 
ATOM     74  C   UNL     1      15.631 -10.097  18.389  1.00  0.00     0.139 C 
ATOM     75  C   UNL     1      16.029 -11.581  18.510  1.00  0.00     0.174 C 
BRANCH  71  76
ATOM     76  C   UNL     1      12.723 -12.345  16.749  1.00  0.00     0.198 C 
BRANCH  76  77
ATOM     77  O   UNL     1      13.439 -12.073  15.546  1.00  0.00    -0.398 OA
ATOM     78  H   UNL     1      14.209 -12.675  15.540  1.00  0.00     0.209 HD
ENDBRANCH  76  77
ENDBRANCH  71  76
BRANCH  74  79
ATOM     79  N   UNL     1      16.110  -9.354  19.554  1.00  0.00    -0.352 N 
ATOM     80  C   UNL     1      16.699  -8.116  19.453  1.00  0.00     0.218 C 
ATOM     81  O   UNL     1      16.806  -7.508  18.394  1.00  0.00    -0.274 OA
ATOM     82  H   UNL     1      16.256  -9.897  20.400  1.00  0.00     0.163 HD
BRANCH  80  83
ATOM     83  C   UNL     1      17.160  -7.569  20.785  1.00  0.00     0.113 C 
BRANCH  83  84
ATOM     84  C   UNL     1      16.394  -6.313  21.178  1.00  0.00     0.119 C 
BRANCH  84  85
ATOM     85  C   UNL     1      15.166  -6.658  21.965  1.00  0.00     0.139 C 
ATOM     86  O   UNL     1      14.403  -7.590  21.772  1.00  0.00    -0.650 OA
BRANCH  85  87
ATOM     87  O   UNL     1      14.950  -5.792  22.973  1.00  0.00    -0.776 OA
ATOM     88  H   UNL     1      15.758  -5.238  22.996  1.00  0.00     0.167 HD
ENDBRANCH  85  87
ENDBRANCH  84  85
ENDBRANCH  83  84
ENDBRANCH  80  83
ENDBRANCH  74  79
BRANCH  75  89
ATOM     89  O   UNL     1      15.884 -12.005  19.881  1.00  0.00    -0.391 OA
ATOM     90  H   UNL     1      15.704 -12.963  19.884  1.00  0.00     0.210 HD
ENDBRANCH  75  89
ENDBRANCH  69  70
ENDBRANCH  63  69
BRANCH  64  91
ATOM     91  N   UNL     1      17.682 -15.793  17.701  1.00  0.00    -0.251 NA
ATOM     92  C   UNL     1      18.989 -15.392  17.642  1.00  0.00     0.198 C 
ATOM     93  O   UNL     1      19.306 -14.420  18.332  1.00  0.00    -0.280 OA
ATOM     94  H   UNL     1      17.300 -15.267  18.482  1.00  0.00     0.131 HD
BRANCH  92  95
ATOM     95  C   UNL     1      20.008 -16.214  16.897  1.00  0.00     0.107 C 
BRANCH  95  96
ATOM     96  C   UNL     1      20.545 -15.339  15.764  1.00  0.00     0.118 C 
BRANCH  96  97
ATOM     97  C   UNL     1      19.705 -15.390  14.526  1.00  0.00     0.139 C 
ATOM     98  O   UNL     1      19.338 -16.378  13.912  1.00  0.00    -0.650 OA
BRANCH  97  99
ATOM     99  O   UNL     1      19.288 -14.161  14.154  1.00  0.00    -0.776 OA
ATOM    100  H   UNL     1      18.672 -14.334  13.413  1.00  0.00     0.167 HD
ENDBRANCH  97  99
ENDBRANCH  96  97
ENDBRANCH  95  96
ENDBRANCH  92  95
ENDBRANCH  64  91
BRANCH  65 101
ATOM    101  O   UNL     1      14.913 -17.216  17.124  1.00  0.00    -0.391 OA
ATOM    102  H   UNL     1      15.180 -16.828  17.981  1.00  0.00     0.210 HD
ENDBRANCH  65 101
ENDBRANCH  59  60
ENDBRANCH   5  59
TORSDOF 44
ENDMDL
MODEL 3
REMARK VINA RESULT:      -5.9      4.556     10.376
REMARK WARNING: 32 MAX_TORS EXCEEDED!!!
REMARK  44 active torsions:
REMARK  status: ('A' for Active; 'I' for Inactive)
REMARK    1  A    between atoms: C_1  and  O_44 
REMARK    2  A    between atoms: C_2  and  C_6 
REMARK    3  A    between atoms: C_3  and  O_10 
REMARK    4  A    between atoms: C_4  and  N_12 
REMARK    5  A    between atoms: C_5  and  O_14 
REMARK    6  A    between atoms: C_6  and  O_7 
REMARK    7  A    between atoms: O_14  and  C_27 
REMARK    8  A    between atoms: O_16  and  C_21 
REMARK    9  A    between atoms: C_18  and  C_33 
REMARK   10  A    between atoms: O_20  and  C_33 
REMARK   11  A    between atoms: O_22  and  C_30 
REMARK   12  A    between atoms: O_22  and  C_70 
REMARK   13  A    between atoms: O_23  and  C_24 
REMARK   14  A    between atoms: C_24  and  C_28 
REMARK   15  A    between atoms: C_28  and  C_31 
REMARK       I    between atoms: N_29  and  C_32 
REMARK   16  A    between atoms: N_29  and  C_35 
REMARK   17  A    between atoms: C_31  and  C_32 
REMARK   18  A    between atoms: O_38  and  C_43 
REMARK   19  A    between atoms: C_40  and  C_55 
REMARK   20  A    between atoms: O_42  and  C_55 
REMARK   21  A    between atoms: O_44  and  C_52 
REMARK   22  A    between atoms: O_45  and  C_46 
REMARK   23  A    between atoms: C_46  and  C_50 
REMARK   24  A    between atoms: C_49  and  O_87 
REMARK   25  A    between atoms: C_50  and  C_53 
REMARK       I    between atoms: N_51  and  C_54 
REMARK   26  A    between atoms: N_51  and  C_57 
REMARK   27  A    between atoms: C_53  and  C_54 
REMARK   28  A    between atoms: O_60  and  C_65 
REMARK   29  A    between atoms: C_62  and  C_76 
REMARK   30  A    between atoms: O_64  and  C_76 
REMARK   31  A    between atoms: O_66  and  C_67 
REMARK   32  A    between atoms: C_67  and  C_71 
REMARK   33  A    between atoms: C_71  and  C_74 
REMARK       I    between atoms: N_72  and  C_75 
REMARK   34  A    between atoms: N_72  and  C_78 
REMARK   35  A    between atoms: C_74  and  C_75 
REMARK   36  A    between atoms: O_81  and  C_86 
REMARK   37  A    between atoms: C_83  and  C_98 
REMARK   38  A    between atoms: O_85  and  C_98 
REMARK   39  A    between atoms: O_87  and  C_95 
REMARK   40  A    between atoms: O_88  and  C_89 
REMARK   41  A    between atoms: C_89  and  C_93 
REMARK   42  A    between atoms: C_93  and  C_96 
REMARK       I    between atoms: N_94  and  C_97 
REMARK   43  A    between atoms: N_94  and  C_100 
REMARK   44  A    between atoms: C_96  and  C_97 
ROOT
ATOM      1  C   UNL     1      15.567 -20.054  11.269  1.00  0.00     0.186 C 
ATOM      2  C   UNL     1      14.874 -18.979  12.136  1.00  0.00     0.179 C 
ATOM      3  C   UNL     1      16.718 -20.717  12.050  1.00  0.00     0.187 C 
ATOM      4  C   UNL     1      17.645 -19.624  12.620  1.00  0.00     0.303 C 
ATOM      5  C   UNL     1      16.831 -18.665  13.560  1.00  0.00     0.296 C 
ATOM      6  O   UNL     1      15.419 -18.891  13.471  1.00  0.00    -0.349 OA
ENDROOT
BRANCH   1   7
ATOM      7  O   UNL     1      14.618 -21.062  10.887  1.00  0.00    -0.348 OA
BRANCH   7   8
ATOM      8  C   UNL     1      14.797 -21.616   9.578  1.00  0.00     0.286 C 
ATOM      9  O   UNL     1      15.752 -20.788   8.905  1.00  0.00    -0.349 OA
ATOM     10  C   UNL     1      16.089 -21.211   7.571  1.00  0.00     0.180 C 
ATOM     11  C   UNL     1      14.854 -21.436   6.669  1.00  0.00     0.186 C 
ATOM     12  C   UNL     1      13.571 -21.022   7.406  1.00  0.00     0.177 C 
ATOM     13  C   UNL     1      13.451 -21.672   8.791  1.00  0.00     0.170 C 
BRANCH  10  14
ATOM     14  C   UNL     1      17.004 -22.446   7.609  1.00  0.00     0.198 C 
BRANCH  14  15
ATOM     15  O   UNL     1      17.190 -22.991   6.306  1.00  0.00    -0.398 OA
ATOM     16  H   UNL     1      17.888 -23.672   6.359  1.00  0.00     0.209 HD
ENDBRANCH  14  15
ENDBRANCH  10  14
BRANCH  11  17
ATOM     17  O   UNL     1      14.999 -20.601   5.510  1.00  0.00    -0.348 OA
BRANCH  17  18
ATOM     18  C   UNL     1      14.933 -21.243   4.235  1.00  0.00     0.286 C 
ATOM     19  O   UNL     1      14.653 -22.616   4.480  1.00  0.00    -0.352 OA
ATOM     20  C   UNL     1      14.439 -23.405   3.295  1.00  0.00     0.150 C 
ATOM     21  C   UNL     1      15.248 -22.933   2.082  1.00  0.00     0.068 C 
ATOM     22  C   UNL     1      16.547 -22.279   2.522  1.00  0.00     0.148 C 
ATOM     23  C   UNL     1      16.255 -21.062   3.428  1.00  0.00     0.168 C 
BRANCH  20  24
ATOM     24  C   UNL     1      12.936 -23.446   2.990  1.00  0.00     0.196 C 
BRANCH  24  25
ATOM     25  O   UNL     1      12.223 -23.981   4.104  1.00  0.00    -0.398 OA
ATOM     26  H   UNL     1      12.687 -24.804   4.356  1.00  0.00     0.209 HD
ENDBRANCH  24  25
ENDBRANCH  20  24
BRANCH  22  27
ATOM     27  O   UNL     1      17.337 -23.264   3.197  1.00  0.00    -0.393 OA
ATOM     28  H   UNL     1      17.518 -23.960   2.537  1.00  0.00     0.210 HD
ENDBRANCH  22  27
BRANCH  23  29
ATOM     29  N   UNL     1      17.419 -20.721   4.259  1.00  0.00    -0.349 N 
ATOM     30  C   UNL     1      18.386 -19.869   3.777  1.00  0.00     0.218 C 
ATOM     31  O   UNL     1      18.435 -19.544   2.594  1.00  0.00    -0.274 OA
ATOM     32  H   UNL     1      17.334 -20.884   5.263  1.00  0.00     0.163 HD
BRANCH  30  33
ATOM     33  C   UNL     1      19.365 -19.368   4.815  1.00  0.00     0.113 C 
BRANCH  33  34
ATOM     34  C   UNL     1      19.858 -20.529   5.675  1.00  0.00     0.119 C 
BRANCH  34  35
ATOM     35  C   UNL     1      20.513 -21.598   4.849  1.00  0.00     0.139 C 
ATOM     36  O   UNL     1      21.550 -21.513   4.218  1.00  0.00    -0.650 OA
BRANCH  35  37
ATOM     37  O   UNL     1      19.794 -22.738   4.844  1.00  0.00    -0.776 OA
ATOM     38  H   UNL     1      19.573 -22.884   3.901  1.00  0.00     0.167 HD
ENDBRANCH  35  37
ENDBRANCH  34  35
ENDBRANCH  33  34
ENDBRANCH  30  33
ENDBRANCH  23  29
ENDBRANCH  17  18
ENDBRANCH  11  17
BRANCH  12  39
ATOM     39  O   UNL     1      13.474 -19.589   7.509  1.00  0.00    -0.391 OA
ATOM     40  H   UNL     1      13.419 -19.230   6.603  1.00  0.00     0.210 HD
ENDBRANCH  12  39
BRANCH  13  41
ATOM     41  N   UNL     1      12.315 -21.085   9.499  1.00  0.00    -0.349 N 
ATOM     42  C   UNL     1      11.021 -21.478   9.268  1.00  0.00     0.218 C 
ATOM     43  O   UNL     1      10.716 -22.224   8.343  1.00  0.00    -0.274 OA
ATOM     44  H   UNL     1      12.526 -20.561  10.344  1.00  0.00     0.163 HD
BRANCH  42  45
ATOM     45  C   UNL     1      10.033 -20.857  10.226  1.00  0.00     0.113 C 
BRANCH  45  46
ATOM     46  C   UNL     1       8.708 -20.550   9.546  1.00  0.00     0.119 C 
BRANCH  46  47
ATOM     47  C   UNL     1       8.521 -19.069   9.391  1.00  0.00     0.139 C 
ATOM     48  O   UNL     1       8.478 -18.433   8.351  1.00  0.00    -0.650 OA
BRANCH  47  49
ATOM     49  O   UNL     1       8.365 -18.450  10.578  1.00  0.00    -0.776 OA
ATOM     50  H   UNL     1       7.398 -18.317  10.654  1.00  0.00     0.167 HD
ENDBRANCH  47  49
ENDBRANCH  46  47
ENDBRANCH  45  46
ENDBRANCH  42  45
ENDBRANCH  13  41
ENDBRANCH   7   8
ENDBRANCH   1   7
BRANCH   2  51
ATOM     51  C   UNL     1      14.909 -17.598  11.458  1.00  0.00     0.198 C 
BRANCH  51  52
ATOM     52  O   UNL     1      15.281 -17.714  10.089  1.00  0.00    -0.398 OA
ATOM     53  H   UNL     1      16.204 -18.032  10.053  1.00  0.00     0.209 HD
ENDBRANCH  51  52
ENDBRANCH   2  51
BRANCH   3  54
ATOM     54  O   UNL     1      16.240 -21.567  13.107  1.00  0.00    -0.391 OA
ATOM     55  H   UNL     1      15.749 -22.304  12.694  1.00  0.00     0.210 HD
ENDBRANCH   3  54
BRANCH   4  56
ATOM     56  N   UNL     1      18.840 -20.259  13.205  1.00  0.00     0.090 N 
ATOM     57  H   UNL     1      19.509 -19.571  13.525  1.00  0.00     0.313 HD
ATOM     58  H   UNL     1      18.536 -20.777  14.037  1.00  0.00     0.313 HD
ENDBRANCH   4  56
BRANCH   5  59
ATOM     59  O   UNL     1      17.197 -18.860  14.939  1.00  0.00    -0.348 OA
BRANCH  59  60
ATOM     60  C   UNL     1      17.268 -17.657  15.727  1.00  0.00     0.186 C 
ATOM     61  C   UNL     1      17.276 -16.380  14.846  1.00  0.00     0.179 C 
ATOM     62  O   UNL     1      16.273 -15.401  15.188  1.00  0.00    -0.349 OA
ATOM     63  C   UNL     1      16.100 -15.089  16.574  1.00  0.00     0.281 C 
ATOM     64  C   UNL     1      16.113 -16.344  17.492  1.00  0.00     0.149 C 
ATOM     65  C   UNL     1      16.063 -17.654  16.687  1.00  0.00     0.172 C 
BRANCH  61  66
ATOM     66  C   UNL     1      18.650 -15.690  14.862  1.00  0.00     0.198 C 
BRANCH  66  67
ATOM     67  O   UNL     1      18.535 -14.332  14.451  1.00  0.00    -0.398 OA
ATOM     68  H   UNL     1      17.680 -14.228  13.992  1.00  0.00     0.209 HD
ENDBRANCH  66  67
ENDBRANCH  61  66
BRANCH  63  69
ATOM     69  O   UNL     1      14.893 -14.347  16.709  1.00  0.00    -0.349 OA
BRANCH  69  70
ATOM     70  C   UNL     1      14.974 -12.949  16.408  1.00  0.00     0.186 C 
ATOM     71  C   UNL     1      13.701 -12.441  15.689  1.00  0.00     0.176 C 
ATOM     72  O   UNL     1      13.320 -11.107  16.117  1.00  0.00    -0.379 OA
ATOM     73  C   UNL     1      14.430 -10.219  16.288  1.00  0.00     0.196 C 
ATOM     74  C   UNL     1      15.341 -10.671  17.442  1.00  0.00     0.139 C 
ATOM     75  C   UNL     1      15.150 -12.172  17.735  1.00  0.00     0.174 C 
BRANCH  71  76
ATOM     76  C   UNL     1      13.827 -12.438  14.159  1.00  0.00     0.198 C 
BRANCH  76  77
ATOM     77  O   UNL     1      14.972 -13.191  13.763  1.00  0.00    -0.398 OA
ATOM     78  H   UNL     1      15.427 -12.664  13.077  1.00  0.00     0.209 HD
ENDBRANCH  76  77
ENDBRANCH  71  76
BRANCH  74  79
ATOM     79  N   UNL     1      15.089  -9.889  18.652  1.00  0.00    -0.352 N 
ATOM     80  C   UNL     1      15.796  -8.751  18.960  1.00  0.00     0.218 C 
ATOM     81  O   UNL     1      16.640  -8.264  18.217  1.00  0.00    -0.274 OA
ATOM     82  H   UNL     1      14.582 -10.365  19.393  1.00  0.00     0.163 HD
BRANCH  80  83
ATOM     83  C   UNL     1      15.394  -8.146  20.286  1.00  0.00     0.113 C 
BRANCH  83  84
ATOM     84  C   UNL     1      15.267  -6.631  20.201  1.00  0.00     0.119 C 
BRANCH  84  85
ATOM     85  C   UNL     1      16.283  -5.957  21.074  1.00  0.00     0.139 C 
ATOM     86  O   UNL     1      17.195  -6.486  21.688  1.00  0.00    -0.650 OA
BRANCH  85  87
ATOM     87  O   UNL     1      16.096  -4.625  21.136  1.00  0.00    -0.776 OA
ATOM     88  H   UNL     1      15.295  -4.466  20.595  1.00  0.00     0.167 HD
ENDBRANCH  85  87
ENDBRANCH  84  85
ENDBRANCH  83  84
ENDBRANCH  80  83
ENDBRANCH  74  79
BRANCH  75  89
ATOM     89  O   UNL     1      14.022 -12.348  18.616  1.00  0.00    -0.391 OA
ATOM     90  H   UNL     1      13.981 -13.289  18.871  1.00  0.00     0.210 HD
ENDBRANCH  75  89
ENDBRANCH  69  70
ENDBRANCH  63  69
BRANCH  64  91
ATOM     91  N   UNL     1      15.326 -16.329  18.737  1.00  0.00    -0.251 NA
ATOM     92  C   UNL     1      15.780 -15.756  19.895  1.00  0.00     0.198 C 
ATOM     93  O   UNL     1      15.173 -14.763  20.300  1.00  0.00    -0.280 OA
ATOM     94  H   UNL     1      14.435 -15.873  18.572  1.00  0.00     0.131 HD
BRANCH  92  95
ATOM     95  C   UNL     1      16.862 -16.423  20.705  1.00  0.00     0.107 C 
BRANCH  95  96
ATOM     96  C   UNL     1      16.263 -16.733  22.077  1.00  0.00     0.118 C 
BRANCH  96  97
ATOM     97  C   UNL     1      15.258 -17.842  22.048  1.00  0.00     0.139 C 
ATOM     98  O   UNL     1      14.238 -17.944  22.710  1.00  0.00    -0.650 OA
BRANCH  97  99
ATOM     99  O   UNL     1      15.552 -18.759  21.101  1.00  0.00    -0.776 OA
ATOM    100  H   UNL     1      15.277 -18.332  20.264  1.00  0.00     0.167 HD
ENDBRANCH  97  99
ENDBRANCH  96  97
ENDBRANCH  95  96
ENDBRANCH  92  95
ENDBRANCH  64  91
BRANCH  65 101
ATOM    101  O   UNL     1      14.835 -17.802  15.978  1.00  0.00    -0.391 OA
ATOM    102  H   UNL     1      14.116 -17.668  16.627  1.00  0.00     0.210 HD
ENDBRANCH  65 101
ENDBRANCH  59  60
ENDBRANCH   5  59
TORSDOF 44
ENDMDL
MODEL 4
REMARK VINA RESULT:      -5.4      5.031     10.930
REMARK WARNING: 32 MAX_TORS EXCEEDED!!!
REMARK  44 active torsions:
REMARK  status: ('A' for Active; 'I' for Inactive)
REMARK    1  A    between atoms: C_1  and  O_44 
REMARK    2  A    between atoms: C_2  and  C_6 
REMARK    3  A    between atoms: C_3  and  O_10 
REMARK    4  A    between atoms: C_4  and  N_12 
REMARK    5  A    between atoms: C_5  and  O_14 
REMARK    6  A    between atoms: C_6  and  O_7 
REMARK    7  A    between atoms: O_14  and  C_27 
REMARK    8  A    between atoms: O_16  and  C_21 
REMARK    9  A    between atoms: C_18  and  C_33 
REMARK   10  A    between atoms: O_20  and  C_33 
REMARK   11  A    between atoms: O_22  and  C_30 
REMARK   12  A    between atoms: O_22  and  C_70 
REMARK   13  A    between atoms: O_23  and  C_24 
REMARK   14  A    between atoms: C_24  and  C_28 
REMARK   15  A    between atoms: C_28  and  C_31 
REMARK       I    between atoms: N_29  and  C_32 
REMARK   16  A    between atoms: N_29  and  C_35 
REMARK   17  A    between atoms: C_31  and  C_32 
REMARK   18  A    between atoms: O_38  and  C_43 
REMARK   19  A    between atoms: C_40  and  C_55 
REMARK   20  A    between atoms: O_42  and  C_55 
REMARK   21  A    between atoms: O_44  and  C_52 
REMARK   22  A    between atoms: O_45  and  C_46 
REMARK   23  A    between atoms: C_46  and  C_50 
REMARK   24  A    between atoms: C_49  and  O_87 
REMARK   25  A    between atoms: C_50  and  C_53 
REMARK       I    between atoms: N_51  and  C_54 
REMARK   26  A    between atoms: N_51  and  C_57 
REMARK   27  A    between atoms: C_53  and  C_54 
REMARK   28  A    between atoms: O_60  and  C_65 
REMARK   29  A    between atoms: C_62  and  C_76 
REMARK   30  A    between atoms: O_64  and  C_76 
REMARK   31  A    between atoms: O_66  and  C_67 
REMARK   32  A    between atoms: C_67  and  C_71 
REMARK   33  A    between atoms: C_71  and  C_74 
REMARK       I    between atoms: N_72  and  C_75 
REMARK   34  A    between atoms: N_72  and  C_78 
REMARK   35  A    between atoms: C_74  and  C_75 
REMARK   36  A    between atoms: O_81  and  C_86 
REMARK   37  A    between atoms: C_83  and  C_98 
REMARK   38  A    between atoms: O_85  and  C_98 
REMARK   39  A    between atoms: O_87  and  C_95 
REMARK   40  A    between atoms: O_88  and  C_89 
REMARK   41  A    between atoms: C_89  and  C_93 
REMARK   42  A    between atoms: C_93  and  C_96 
REMARK       I    between atoms: N_94  and  C_97 
REMARK   43  A    between atoms: N_94  and  C_100 
REMARK   44  A    between atoms: C_96  and  C_97 
ROOT
ATOM      1  C   UNL     1      14.470 -21.019  10.684  1.00  0.00     0.186 C 
ATOM      2  C   UNL     1      15.732 -21.055  11.573  1.00  0.00     0.179 C 
ATOM      3  C   UNL     1      13.337 -20.247  11.386  1.00  0.00     0.187 C 
ATOM      4  C   UNL     1      13.134 -20.815  12.805  1.00  0.00     0.303 C 
ATOM      5  C   UNL     1      14.466 -20.695  13.628  1.00  0.00     0.296 C 
ATOM      6  O   UNL     1      15.576 -20.318  12.806  1.00  0.00    -0.349 OA
ENDROOT
BRANCH   1   7
ATOM      7  O   UNL     1      14.769 -20.379   9.433  1.00  0.00    -0.348 OA
BRANCH   7   8
ATOM      8  C   UNL     1      15.130 -21.256   8.360  1.00  0.00     0.286 C 
ATOM      9  O   UNL     1      16.403 -20.816   7.876  1.00  0.00    -0.349 OA
ATOM     10  C   UNL     1      16.952 -21.606   6.805  1.00  0.00     0.180 C 
ATOM     11  C   UNL     1      15.974 -21.800   5.623  1.00  0.00     0.186 C 
ATOM     12  C   UNL     1      14.694 -20.980   5.848  1.00  0.00     0.177 C 
ATOM     13  C   UNL     1      14.062 -21.240   7.223  1.00  0.00     0.170 C 
BRANCH  10  14
ATOM     14  C   UNL     1      17.481 -22.947   7.337  1.00  0.00     0.198 C 
BRANCH  14  15
ATOM     15  O   UNL     1      17.653 -23.890   6.282  1.00  0.00    -0.398 OA
ATOM     16  H   UNL     1      17.316 -23.488   5.458  1.00  0.00     0.209 HD
ENDBRANCH  14  15
ENDBRANCH  10  14
BRANCH  11  17
ATOM     17  O   UNL     1      16.617 -21.314   4.436  1.00  0.00    -0.348 OA
BRANCH  17  18
ATOM     18  C   UNL     1      16.046 -21.699   3.184  1.00  0.00     0.286 C 
ATOM     19  O   UNL     1      15.797 -23.098   3.258  1.00  0.00    -0.352 OA
ATOM     20  C   UNL     1      15.114 -23.647   2.116  1.00  0.00     0.150 C 
ATOM     21  C   UNL     1      15.442 -22.937   0.798  1.00  0.00     0.068 C 
ATOM     22  C   UNL     1      16.848 -22.360   0.831  1.00  0.00     0.148 C 
ATOM     23  C   UNL     1      16.984 -21.345   1.988  1.00  0.00     0.168 C 
BRANCH  20  24
ATOM     24  C   UNL     1      13.605 -23.651   2.396  1.00  0.00     0.196 C 
BRANCH  24  25
ATOM     25  O   UNL     1      12.915 -22.927   1.380  1.00  0.00    -0.398 OA
ATOM     26  H   UNL     1      13.562 -22.296   1.006  1.00  0.00     0.209 HD
ENDBRANCH  24  25
ENDBRANCH  20  24
BRANCH  22  27
ATOM     27  O   UNL     1      17.772 -23.445   0.967  1.00  0.00    -0.393 OA
ATOM     28  H   UNL     1      17.705 -23.740   1.895  1.00  0.00     0.210 HD
ENDBRANCH  22  27
BRANCH  23  29
ATOM     29  N   UNL     1      18.391 -21.154   2.369  1.00  0.00    -0.349 N 
ATOM     30  C   UNL     1      18.913 -19.884   2.464  1.00  0.00     0.218 C 
ATOM     31  O   UNL     1      18.316 -18.901   2.033  1.00  0.00    -0.274 OA
ATOM     32  H   UNL     1      18.853 -21.934   2.835  1.00  0.00     0.163 HD
BRANCH  30  33
ATOM     33  C   UNL     1      20.263 -19.803   3.141  1.00  0.00     0.113 C 
BRANCH  33  34
ATOM     34  C   UNL     1      20.114 -20.044   4.641  1.00  0.00     0.119 C 
BRANCH  34  35
ATOM     35  C   UNL     1      20.516 -21.438   5.025  1.00  0.00     0.139 C 
ATOM     36  O   UNL     1      21.546 -21.786   5.571  1.00  0.00    -0.650 OA
BRANCH  35  37
ATOM     37  O   UNL     1      19.584 -22.345   4.670  1.00  0.00    -0.776 OA
ATOM     38  H   UNL     1      19.501 -22.930   5.452  1.00  0.00     0.167 HD
ENDBRANCH  35  37
ENDBRANCH  34  35
ENDBRANCH  33  34
ENDBRANCH  30  33
ENDBRANCH  23  29
ENDBRANCH  17  18
ENDBRANCH  11  17
BRANCH  12  39
ATOM     39  O   UNL     1      14.942 -19.573   5.663  1.00  0.00    -0.391 OA
ATOM     40  H   UNL     1      14.206 -19.211   5.133  1.00  0.00     0.210 HD
ENDBRANCH  12  39
BRANCH  13  41
ATOM     41  N   UNL     1      12.971 -20.291   7.436  1.00  0.00    -0.349 N 
ATOM     42  C   UNL     1      11.724 -20.685   7.851  1.00  0.00     0.218 C 
ATOM     43  O   UNL     1      11.393 -21.865   7.913  1.00  0.00    -0.274 OA
ATOM     44  H   UNL     1      13.228 -19.311   7.513  1.00  0.00     0.163 HD
BRANCH  42  45
ATOM     45  C   UNL     1      10.809 -19.525   8.162  1.00  0.00     0.113 C 
BRANCH  45  46
ATOM     46  C   UNL     1       9.344 -19.913   8.032  1.00  0.00     0.119 C 
BRANCH  46  47
ATOM     47  C   UNL     1       8.458 -18.724   8.265  1.00  0.00     0.139 C 
ATOM     48  O   UNL     1       8.315 -18.100   9.302  1.00  0.00    -0.650 OA
BRANCH  47  49
ATOM     49  O   UNL     1       7.802 -18.354   7.147  1.00  0.00    -0.776 OA
ATOM     50  H   UNL     1       6.899 -18.138   7.459  1.00  0.00     0.167 HD
ENDBRANCH  47  49
ENDBRANCH  46  47
ENDBRANCH  45  46
ENDBRANCH  42  45
ENDBRANCH  13  41
ENDBRANCH   7   8
ENDBRANCH   1   7
BRANCH   2  51
ATOM     51  C   UNL     1      16.172 -22.498  11.872  1.00  0.00     0.198 C 
BRANCH  51  52
ATOM     52  O   UNL     1      15.222 -23.433  11.371  1.00  0.00    -0.398 OA
ATOM     53  H   UNL     1      14.377 -23.283  11.836  1.00  0.00     0.209 HD
ENDBRANCH  51  52
ENDBRANCH   2  51
BRANCH   3  54
ATOM     54  O   UNL     1      13.597 -18.833  11.447  1.00  0.00    -0.391 OA
ATOM     55  H   UNL     1      13.075 -18.407  10.740  1.00  0.00     0.210 HD
ENDBRANCH   3  54
BRANCH   4  56
ATOM     56  N   UNL     1      11.933 -20.203  13.404  1.00  0.00     0.090 N 
ATOM     57  H   UNL     1      11.382 -20.884  13.912  1.00  0.00     0.313 HD
ATOM     58  H   UNL     1      12.252 -19.515  14.096  1.00  0.00     0.313 HD
ENDBRANCH   4  56
BRANCH   5  59
ATOM     59  O   UNL     1      14.349 -19.692  14.656  1.00  0.00    -0.348 OA
BRANCH  59  60
ATOM     60  C   UNL     1      15.381 -18.688  14.646  1.00  0.00     0.186 C 
ATOM     61  C   UNL     1      14.828 -17.277  14.977  1.00  0.00     0.179 C 
ATOM     62  O   UNL     1      15.510 -16.596  16.051  1.00  0.00    -0.349 OA
ATOM     63  C   UNL     1      16.940 -16.618  16.045  1.00  0.00     0.281 C 
ATOM     64  C   UNL     1      17.531 -18.012  15.691  1.00  0.00     0.149 C 
ATOM     65  C   UNL     1      16.455 -19.110  15.666  1.00  0.00     0.172 C 
BRANCH  61  66
ATOM     66  C   UNL     1      14.837 -16.361  13.742  1.00  0.00     0.198 C 
BRANCH  66  67
ATOM     67  O   UNL     1      15.320 -17.061  12.601  1.00  0.00    -0.398 OA
ATOM     68  H   UNL     1      14.776 -16.795  11.834  1.00  0.00     0.209 HD
ENDBRANCH  66  67
ENDBRANCH  61  66
BRANCH  63  69
ATOM     69  O   UNL     1      17.392 -16.159  17.315  1.00  0.00    -0.349 OA
BRANCH  69  70
ATOM     70  C   UNL     1      16.439 -15.432  18.099  1.00  0.00     0.186 C 
ATOM     71  C   UNL     1      16.757 -15.514  19.611  1.00  0.00     0.176 C 
ATOM     72  O   UNL     1      16.489 -14.266  20.301  1.00  0.00    -0.379 OA
ATOM     73  C   UNL     1      15.285 -13.619  19.872  1.00  0.00     0.196 C 
ATOM     74  C   UNL     1      15.385 -13.155  18.408  1.00  0.00     0.139 C 
ATOM     75  C   UNL     1      16.469 -13.950  17.655  1.00  0.00     0.174 C 
BRANCH  71  76
ATOM     76  C   UNL     1      15.996 -16.637  20.332  1.00  0.00     0.198 C 
BRANCH  76  77
ATOM     77  O   UNL     1      15.826 -17.750  19.457  1.00  0.00    -0.398 OA
ATOM     78  H   UNL     1      16.595 -17.747  18.852  1.00  0.00     0.209 HD
ENDBRANCH  76  77
ENDBRANCH  71  76
BRANCH  74  79
ATOM     79  N   UNL     1      15.668 -11.722  18.327  1.00  0.00    -0.352 N 
ATOM     80  C   UNL     1      14.696 -10.789  18.053  1.00  0.00     0.218 C 
ATOM     81  O   UNL     1      13.510 -11.073  17.926  1.00  0.00    -0.274 OA
ATOM     82  H   UNL     1      16.643 -11.466  18.193  1.00  0.00     0.163 HD
BRANCH  80  83
ATOM     83  C   UNL     1      15.237  -9.379  17.967  1.00  0.00     0.113 C 
BRANCH  83  84
ATOM     84  C   UNL     1      15.297  -8.712  19.335  1.00  0.00     0.119 C 
BRANCH  84  85
ATOM     85  C   UNL     1      16.276  -7.576  19.335  1.00  0.00     0.139 C 
ATOM     86  O   UNL     1      16.388  -6.699  20.175  1.00  0.00    -0.650 OA
BRANCH  85  87
ATOM     87  O   UNL     1      17.078  -7.597  18.254  1.00  0.00    -0.776 OA
ATOM     88  H   UNL     1      17.973  -7.419  18.611  1.00  0.00     0.167 HD
ENDBRANCH  85  87
ENDBRANCH  84  85
ENDBRANCH  83  84
ENDBRANCH  80  83
ENDBRANCH  74  79
BRANCH  75  89
ATOM     89  O   UNL     1      17.757 -13.344  17.889  1.00  0.00    -0.391 OA
ATOM     90  H   UNL     1      18.132 -13.734  18.700  1.00  0.00     0.210 HD
ENDBRANCH  75  89
ENDBRANCH  69  70
ENDBRANCH  63  69
BRANCH  64  91
ATOM     91  N   UNL     1      18.832 -18.404  16.259  1.00  0.00    -0.251 NA
ATOM     92  C   UNL     1      19.837 -17.506  16.502  1.00  0.00     0.198 C 
ATOM     93  O   UNL     1      20.145 -17.320  17.681  1.00  0.00    -0.280 OA
ATOM     94  H   UNL     1      18.690 -18.859  17.155  1.00  0.00     0.131 HD
BRANCH  92  95
ATOM     95  C   UNL     1      20.627 -16.917  15.362  1.00  0.00     0.107 C 
BRANCH  95  96
ATOM     96  C   UNL     1      20.593 -15.398  15.536  1.00  0.00     0.118 C 
BRANCH  96  97
ATOM     97  C   UNL     1      19.561 -14.727  14.685  1.00  0.00     0.139 C 
ATOM     98  O   UNL     1      19.087 -15.123  13.633  1.00  0.00    -0.650 OA
BRANCH  97  99
ATOM     99  O   UNL     1      19.102 -13.593  15.255  1.00  0.00    -0.776 OA
ATOM    100  H   UNL     1      18.269 -13.407  14.777  1.00  0.00     0.167 HD
ENDBRANCH  97  99
ENDBRANCH  96  97
ENDBRANCH  95  96
ENDBRANCH  92  95
ENDBRANCH  64  91
BRANCH  65 101
ATOM    101  O   UNL     1      15.887 -19.334  16.954  1.00  0.00    -0.391 OA
ATOM    102  H   UNL     1      16.532 -19.868  17.459  1.00  0.00     0.210 HD
ENDBRANCH  65 101
ENDBRANCH  59  60
ENDBRANCH   5  59
TORSDOF 44
ENDMDL
MODEL 5
REMARK VINA RESULT:      -5.2      4.805     10.539
REMARK WARNING: 32 MAX_TORS EXCEEDED!!!
REMARK  44 active torsions:
REMARK  status: ('A' for Active; 'I' for Inactive)
REMARK    1  A    between atoms: C_1  and  O_44 
REMARK    2  A    between atoms: C_2  and  C_6 
REMARK    3  A    between atoms: C_3  and  O_10 
REMARK    4  A    between atoms: C_4  and  N_12 
REMARK    5  A    between atoms: C_5  and  O_14 
REMARK    6  A    between atoms: C_6  and  O_7 
REMARK    7  A    between atoms: O_14  and  C_27 
REMARK    8  A    between atoms: O_16  and  C_21 
REMARK    9  A    between atoms: C_18  and  C_33 
REMARK   10  A    between atoms: O_20  and  C_33 
REMARK   11  A    between atoms: O_22  and  C_30 
REMARK   12  A    between atoms: O_22  and  C_70 
REMARK   13  A    between atoms: O_23  and  C_24 
REMARK   14  A    between atoms: C_24  and  C_28 
REMARK   15  A    between atoms: C_28  and  C_31 
REMARK       I    between atoms: N_29  and  C_32 
REMARK   16  A    between atoms: N_29  and  C_35 
REMARK   17  A    between atoms: C_31  and  C_32 
REMARK   18  A    between atoms: O_38  and  C_43 
REMARK   19  A    between atoms: C_40  and  C_55 
REMARK   20  A    between atoms: O_42  and  C_55 
REMARK   21  A    between atoms: O_44  and  C_52 
REMARK   22  A    between atoms: O_45  and  C_46 
REMARK   23  A    between atoms: C_46  and  C_50 
REMARK   24  A    between atoms: C_49  and  O_87 
REMARK   25  A    between atoms: C_50  and  C_53 
REMARK       I    between atoms: N_51  and  C_54 
REMARK   26  A    between atoms: N_51  and  C_57 
REMARK   27  A    between atoms: C_53  and  C_54 
REMARK   28  A    between atoms: O_60  and  C_65 
REMARK   29  A    between atoms: C_62  and  C_76 
REMARK   30  A    between atoms: O_64  and  C_76 
REMARK   31  A    between atoms: O_66  and  C_67 
REMARK   32  A    between atoms: C_67  and  C_71 
REMARK   33  A    between atoms: C_71  and  C_74 
REMARK       I    between atoms: N_72  and  C_75 
REMARK   34  A    between atoms: N_72  and  C_78 
REMARK   35  A    between atoms: C_74  and  C_75 
REMARK   36  A    between atoms: O_81  and  C_86 
REMARK   37  A    between atoms: C_83  and  C_98 
REMARK   38  A    between atoms: O_85  and  C_98 
REMARK   39  A    between atoms: O_87  and  C_95 
REMARK   40  A    between atoms: O_88  and  C_89 
REMARK   41  A    between atoms: C_89  and  C_93 
REMARK   42  A    between atoms: C_93  and  C_96 
REMARK       I    between atoms: N_94  and  C_97 
REMARK   43  A    between atoms: N_94  and  C_100 
REMARK   44  A    between atoms: C_96  and  C_97 
ROOT
ATOM      1  C   UNL     1      16.007 -20.875  10.504  1.00  0.00     0.186 C 
ATOM      2  C   UNL     1      15.042 -19.970  11.301  1.00  0.00     0.179 C 
ATOM      3  C   UNL     1      17.176 -21.335  11.396  1.00  0.00     0.187 C 
ATOM      4  C   UNL     1      17.820 -20.105  12.069  1.00  0.00     0.303 C 
ATOM      5  C   UNL     1      16.751 -19.338  12.925  1.00  0.00     0.296 C 
ATOM      6  O   UNL     1      15.422 -19.818  12.686  1.00  0.00    -0.349 OA
ENDROOT
BRANCH   1   7
ATOM      7  O   UNL     1      15.307 -22.031  10.017  1.00  0.00    -0.348 OA
BRANCH   7   8
ATOM      8  C   UNL     1      15.396 -22.260   8.606  1.00  0.00     0.286 C 
ATOM      9  O   UNL     1      16.349 -21.323   8.094  1.00  0.00    -0.349 OA
ATOM     10  C   UNL     1      16.602 -21.424   6.680  1.00  0.00     0.180 C 
ATOM     11  C   UNL     1      15.314 -21.391   5.825  1.00  0.00     0.186 C 
ATOM     12  C   UNL     1      14.088 -21.129   6.713  1.00  0.00     0.177 C 
ATOM     13  C   UNL     1      14.012 -22.088   7.909  1.00  0.00     0.170 C 
BRANCH  10  14
ATOM     14  C   UNL     1      17.464 -22.657   6.371  1.00  0.00     0.198 C 
BRANCH  14  15
ATOM     15  O   UNL     1      17.552 -22.887   4.967  1.00  0.00    -0.398 OA
ATOM     16  H   UNL     1      16.900 -22.310   4.524  1.00  0.00     0.209 HD
ENDBRANCH  14  15
ENDBRANCH  10  14
BRANCH  11  17
ATOM     17  O   UNL     1      15.435 -20.308   4.891  1.00  0.00    -0.348 OA
BRANCH  17  18
ATOM     18  C   UNL     1      15.326 -20.632   3.503  1.00  0.00     0.286 C 
ATOM     19  O   UNL     1      15.043 -22.024   3.426  1.00  0.00    -0.352 OA
ATOM     20  C   UNL     1      14.789 -22.512   2.096  1.00  0.00     0.150 C 
ATOM     21  C   UNL     1      15.564 -21.767   1.004  1.00  0.00     0.068 C 
ATOM     22  C   UNL     1      16.881 -21.235   1.546  1.00  0.00     0.148 C 
ATOM     23  C   UNL     1      16.624 -20.265   2.721  1.00  0.00     0.168 C 
BRANCH  20  24
ATOM     24  C   UNL     1      13.277 -22.481   1.838  1.00  0.00     0.196 C 
BRANCH  24  25
ATOM     25  O   UNL     1      12.742 -23.801   1.887  1.00  0.00    -0.398 OA
ATOM     26  H   UNL     1      12.850 -24.106   2.810  1.00  0.00     0.209 HD
ENDBRANCH  24  25
ENDBRANCH  20  24
BRANCH  22  27
ATOM     27  O   UNL     1      17.683 -22.351   1.945  1.00  0.00    -0.393 OA
ATOM     28  H   UNL     1      17.522 -23.048   1.281  1.00  0.00     0.210 HD
ENDBRANCH  22  27
BRANCH  23  29
ATOM     29  N   UNL     1      17.816 -20.130   3.572  1.00  0.00    -0.349 N 
ATOM     30  C   UNL     1      18.810 -19.241   3.232  1.00  0.00     0.218 C 
ATOM     31  O   UNL     1      18.853 -18.705   2.128  1.00  0.00    -0.274 OA
ATOM     32  H   UNL     1      17.739 -20.471   4.530  1.00  0.00     0.163 HD
BRANCH  30  33
ATOM     33  C   UNL     1      19.826 -18.979   4.320  1.00  0.00     0.113 C 
BRANCH  33  34
ATOM     34  C   UNL     1      19.871 -20.156   5.292  1.00  0.00     0.119 C 
BRANCH  34  35
ATOM     35  C   UNL     1      20.909 -21.166   4.897  1.00  0.00     0.139 C 
ATOM     36  O   UNL     1      21.653 -21.124   3.935  1.00  0.00    -0.650 OA
BRANCH  35  37
ATOM     37  O   UNL     1      20.938 -22.213   5.745  1.00  0.00    -0.776 OA
ATOM     38  H   UNL     1      21.434 -21.884   6.524  1.00  0.00     0.167 HD
ENDBRANCH  35  37
ENDBRANCH  34  35
ENDBRANCH  33  34
ENDBRANCH  30  33
ENDBRANCH  23  29
ENDBRANCH  17  18
ENDBRANCH  11  17
BRANCH  12  39
ATOM     39  O   UNL     1      14.056 -19.760   7.159  1.00  0.00    -0.391 OA
ATOM     40  H   UNL     1      14.754 -19.652   7.833  1.00  0.00     0.210 HD
ENDBRANCH  12  39
BRANCH  13  41
ATOM     41  N   UNL     1      12.938 -21.655   8.802  1.00  0.00    -0.349 N 
ATOM     42  C   UNL     1      11.724 -22.292   8.855  1.00  0.00     0.218 C 
ATOM     43  O   UNL     1      11.398 -23.157   8.047  1.00  0.00    -0.274 OA
ATOM     44  H   UNL     1      13.200 -21.032   9.561  1.00  0.00     0.163 HD
BRANCH  42  45
ATOM     45  C   UNL     1      10.833 -21.778   9.960  1.00  0.00     0.113 C 
BRANCH  45  46
ATOM     46  C   UNL     1      11.361 -20.480  10.551  1.00  0.00     0.119 C 
BRANCH  46  47
ATOM     47  C   UNL     1      11.151 -20.449  12.037  1.00  0.00     0.139 C 
ATOM     48  O   UNL     1      10.515 -21.241  12.711  1.00  0.00    -0.650 OA
BRANCH  47  49
ATOM     49  O   UNL     1      11.791 -19.415  12.618  1.00  0.00    -0.776 OA
ATOM     50  H   UNL     1      12.334 -19.033  11.898  1.00  0.00     0.167 HD
ENDBRANCH  47  49
ENDBRANCH  46  47
ENDBRANCH  45  46
ENDBRANCH  42  45
ENDBRANCH  13  41
ENDBRANCH   7   8
ENDBRANCH   1   7
BRANCH   2  51
ATOM     51  C   UNL     1      14.887 -18.589  10.640  1.00  0.00     0.198 C 
BRANCH  51  52
ATOM     52  O   UNL     1      15.427 -18.593   9.323  1.00  0.00    -0.398 OA
ATOM     53  H   UNL     1      16.024 -17.824   9.239  1.00  0.00     0.209 HD
ENDBRANCH  51  52
ENDBRANCH   2  51
BRANCH   3  54
ATOM     54  O   UNL     1      16.760 -22.286  12.392  1.00  0.00    -0.391 OA
ATOM     55  H   UNL     1      16.478 -21.783  13.180  1.00  0.00     0.210 HD
ENDBRANCH   3  54
BRANCH   4  56
ATOM     56  N   UNL     1      19.047 -20.524  12.771  1.00  0.00     0.090 N 
ATOM     57  H   UNL     1      18.961 -21.461  13.143  1.00  0.00     0.313 HD
ATOM     58  H   UNL     1      19.802 -20.557  12.077  1.00  0.00     0.313 HD
ENDBRANCH   4  56
BRANCH   5  59
ATOM     59  O   UNL     1      17.005 -19.499  14.333  1.00  0.00    -0.348 OA
BRANCH  59  60
ATOM     60  C   UNL     1      17.182 -18.271  15.064  1.00  0.00     0.186 C 
ATOM     61  C   UNL     1      17.201 -17.032  14.131  1.00  0.00     0.179 C 
ATOM     62  O   UNL     1      16.271 -15.989  14.489  1.00  0.00    -0.349 OA
ATOM     63  C   UNL     1      16.196 -15.614  15.868  1.00  0.00     0.281 C 
ATOM     64  C   UNL     1      16.201 -16.831  16.835  1.00  0.00     0.149 C 
ATOM     65  C   UNL     1      16.039 -18.167  16.091  1.00  0.00     0.172 C 
BRANCH  61  66
ATOM     66  C   UNL     1      18.606 -16.414  14.039  1.00  0.00     0.198 C 
BRANCH  66  67
ATOM     67  O   UNL     1      19.568 -17.402  13.689  1.00  0.00    -0.398 OA
ATOM     68  H   UNL     1      20.287 -17.369  14.350  1.00  0.00     0.209 HD
ENDBRANCH  66  67
ENDBRANCH  61  66
BRANCH  63  69
ATOM     69  O   UNL     1      15.037 -14.805  16.041  1.00  0.00    -0.349 OA
BRANCH  69  70
ATOM     70  C   UNL     1      15.270 -13.412  16.278  1.00  0.00     0.186 C 
ATOM     71  C   UNL     1      13.963 -12.587  16.186  1.00  0.00     0.176 C 
ATOM     72  O   UNL     1      13.911 -11.524  17.172  1.00  0.00    -0.379 OA
ATOM     73  C   UNL     1      15.158 -10.842  17.350  1.00  0.00     0.196 C 
ATOM     74  C   UNL     1      16.228 -11.773  17.948  1.00  0.00     0.139 C 
ATOM     75  C   UNL     1      15.872 -13.251  17.695  1.00  0.00     0.174 C 
BRANCH  71  76
ATOM     76  C   UNL     1      13.729 -11.972  14.799  1.00  0.00     0.198 C 
BRANCH  76  77
ATOM     77  O   UNL     1      14.479 -12.685  13.817  1.00  0.00    -0.398 OA
ATOM     78  H   UNL     1      14.528 -12.106  13.031  1.00  0.00     0.209 HD
ENDBRANCH  76  77
ENDBRANCH  71  76
BRANCH  74  79
ATOM     79  N   UNL     1      16.392 -11.536  19.381  1.00  0.00    -0.352 N 
ATOM     80  C   UNL     1      17.592 -11.715  20.030  1.00  0.00     0.218 C 
ATOM     81  O   UNL     1      18.629 -12.015  19.451  1.00  0.00    -0.274 OA
ATOM     82  H   UNL     1      15.538 -11.517  19.931  1.00  0.00     0.163 HD
BRANCH  80  83
ATOM     83  C   UNL     1      17.503 -11.461  21.518  1.00  0.00     0.113 C 
BRANCH  83  84
ATOM     84  C   UNL     1      18.444 -12.364  22.304  1.00  0.00     0.119 C 
BRANCH  84  85
ATOM     85  C   UNL     1      17.949 -13.780  22.308  1.00  0.00     0.139 C 
ATOM     86  O   UNL     1      17.159 -14.283  23.090  1.00  0.00    -0.650 OA
BRANCH  85  87
ATOM     87  O   UNL     1      18.487 -14.509  21.312  1.00  0.00    -0.776 OA
ATOM     88  H   UNL     1      17.769 -14.583  20.649  1.00  0.00     0.167 HD
ENDBRANCH  85  87
ENDBRANCH  84  85
ENDBRANCH  83  84
ENDBRANCH  80  83
ENDBRANCH  74  79
BRANCH  75  89
ATOM     89  O   UNL     1      14.965 -13.707  18.720  1.00  0.00    -0.391 OA
ATOM     90  H   UNL     1      15.481 -13.863  19.532  1.00  0.00     0.210 HD
ENDBRANCH  75  89
ENDBRANCH  69  70
ENDBRANCH  63  69
BRANCH  64  91
ATOM     91  N   UNL     1      15.492 -16.727  18.123  1.00  0.00    -0.251 NA
ATOM     92  C   UNL     1      16.114 -16.907  19.329  1.00  0.00     0.198 C 
ATOM     93  O   UNL     1      16.192 -15.924  20.068  1.00  0.00    -0.280 OA
ATOM     94  H   UNL     1      15.064 -15.810  18.203  1.00  0.00     0.131 HD
BRANCH  92  95
ATOM     95  C   UNL     1      16.522 -18.286  19.780  1.00  0.00     0.107 C 
BRANCH  95  96
ATOM     96  C   UNL     1      16.369 -18.319  21.301  1.00  0.00     0.118 C 
BRANCH  96  97
ATOM     97  C   UNL     1      15.192 -19.121  21.761  1.00  0.00     0.139 C 
ATOM     98  O   UNL     1      15.023 -20.325  21.661  1.00  0.00    -0.650 OA
BRANCH  97  99
ATOM     99  O   UNL     1      14.292 -18.358  22.416  1.00  0.00    -0.776 OA
ATOM    100  H   UNL     1      14.717 -18.179  23.280  1.00  0.00     0.167 HD
ENDBRANCH  97  99
ENDBRANCH  96  97
ENDBRANCH  95  96
ENDBRANCH  92  95
ENDBRANCH  64  91
BRANCH  65 101
ATOM    101  O   UNL     1      14.765 -18.279  15.461  1.00  0.00    -0.391 OA
ATOM    102  H   UNL     1      14.744 -19.150  15.016  1.00  0.00     0.210 HD
ENDBRANCH  65 101
ENDBRANCH  59  60
ENDBRANCH   5  59
TORSDOF 44
ENDMDL
MODEL 6
REMARK VINA RESULT:      -5.2     22.432     26.976
REMARK WARNING: 32 MAX_TORS EXCEEDED!!!
REMARK  44 active torsions:
REMARK  status: ('A' for Active; 'I' for Inactive)
REMARK    1  A    between atoms: C_1  and  O_44 
REMARK    2  A    between atoms: C_2  and  C_6 
REMARK    3  A    between atoms: C_3  and  O_10 
REMARK    4  A    between atoms: C_4  and  N_12 
REMARK    5  A    between atoms: C_5  and  O_14 
REMARK    6  A    between atoms: C_6  and  O_7 
REMARK    7  A    between atoms: O_14  and  C_27 
REMARK    8  A    between atoms: O_16  and  C_21 
REMARK    9  A    between atoms: C_18  and  C_33 
REMARK   10  A    between atoms: O_20  and  C_33 
REMARK   11  A    between atoms: O_22  and  C_30 
REMARK   12  A    between atoms: O_22  and  C_70 
REMARK   13  A    between atoms: O_23  and  C_24 
REMARK   14  A    between atoms: C_24  and  C_28 
REMARK   15  A    between atoms: C_28  and  C_31 
REMARK       I    between atoms: N_29  and  C_32 
REMARK   16  A    between atoms: N_29  and  C_35 
REMARK   17  A    between atoms: C_31  and  C_32 
REMARK   18  A    between atoms: O_38  and  C_43 
REMARK   19  A    between atoms: C_40  and  C_55 
REMARK   20  A    between atoms: O_42  and  C_55 
REMARK   21  A    between atoms: O_44  and  C_52 
REMARK   22  A    between atoms: O_45  and  C_46 
REMARK   23  A    between atoms: C_46  and  C_50 
REMARK   24  A    between atoms: C_49  and  O_87 
REMARK   25  A    between atoms: C_50  and  C_53 
REMARK       I    between atoms: N_51  and  C_54 
REMARK   26  A    between atoms: N_51  and  C_57 
REMARK   27  A    between atoms: C_53  and  C_54 
REMARK   28  A    between atoms: O_60  and  C_65 
REMARK   29  A    between atoms: C_62  and  C_76 
REMARK   30  A    between atoms: O_64  and  C_76 
REMARK   31  A    between atoms: O_66  and  C_67 
REMARK   32  A    between atoms: C_67  and  C_71 
REMARK   33  A    between atoms: C_71  and  C_74 
REMARK       I    between atoms: N_72  and  C_75 
REMARK   34  A    between atoms: N_72  and  C_78 
REMARK   35  A    between atoms: C_74  and  C_75 
REMARK   36  A    between atoms: O_81  and  C_86 
REMARK   37  A    between atoms: C_83  and  C_98 
REMARK   38  A    between atoms: O_85  and  C_98 
REMARK   39  A    between atoms: O_87  and  C_95 
REMARK   40  A    between atoms: O_88  and  C_89 
REMARK   41  A    between atoms: C_89  and  C_93 
REMARK   42  A    between atoms: C_93  and  C_96 
REMARK       I    between atoms: N_94  and  C_97 
REMARK   43  A    between atoms: N_94  and  C_100 
REMARK   44  A    between atoms: C_96  and  C_97 
ROOT
ATOM      1  C   UNL     1       8.032 -13.790  -5.463  1.00  0.00     0.186 C 
ATOM      2  C   UNL     1       6.768 -13.414  -6.266  1.00  0.00     0.179 C 
ATOM      3  C   UNL     1       8.932 -12.556  -5.263  1.00  0.00     0.187 C 
ATOM      4  C   UNL     1       9.187 -11.882  -6.627  1.00  0.00     0.303 C 
ATOM      5  C   UNL     1       7.823 -11.462  -7.282  1.00  0.00     0.296 C 
ATOM      6  O   UNL     1       6.698 -12.006  -6.583  1.00  0.00    -0.349 OA
ENDROOT
BRANCH   1   7
ATOM      7  O   UNL     1       7.660 -14.312  -4.177  1.00  0.00    -0.348 OA
BRANCH   7   8
ATOM      8  C   UNL     1       6.253 -14.382  -3.921  1.00  0.00     0.286 C 
ATOM      9  O   UNL     1       5.829 -13.059  -3.575  1.00  0.00    -0.349 OA
ATOM     10  C   UNL     1       4.420 -12.922  -3.313  1.00  0.00     0.180 C 
ATOM     11  C   UNL     1       3.888 -13.938  -2.276  1.00  0.00     0.186 C 
ATOM     12  C   UNL     1       5.046 -14.761  -1.691  1.00  0.00     0.177 C 
ATOM     13  C   UNL     1       5.928 -15.392  -2.778  1.00  0.00     0.170 C 
BRANCH  10  14
ATOM     14  C   UNL     1       3.618 -12.968  -4.623  1.00  0.00     0.198 C 
BRANCH  14  15
ATOM     15  O   UNL     1       2.233 -12.725  -4.390  1.00  0.00    -0.398 OA
ATOM     16  H   UNL     1       2.074 -12.776  -3.428  1.00  0.00     0.209 HD
ENDBRANCH  14  15
ENDBRANCH  10  14
BRANCH  11  17
ATOM     17  O   UNL     1       3.278 -13.198  -1.208  1.00  0.00    -0.348 OA
BRANCH  17  18
ATOM     18  C   UNL     1       1.894 -13.447  -0.954  1.00  0.00     0.286 C 
ATOM     19  O   UNL     1       1.449 -14.357  -1.952  1.00  0.00    -0.352 OA
ATOM     20  C   UNL     1       0.093 -14.813  -1.788  1.00  0.00     0.150 C 
ATOM     21  C   UNL     1      -0.835 -13.776  -1.146  1.00  0.00     0.068 C 
ATOM     22  C   UNL     1      -0.380 -12.365  -1.480  1.00  0.00     0.148 C 
ATOM     23  C   UNL     1       1.058 -12.130  -0.965  1.00  0.00     0.168 C 
BRANCH  20  24
ATOM     24  C   UNL     1       0.105 -16.128  -0.997  1.00  0.00     0.196 C 
BRANCH  24  25
ATOM     25  O   UNL     1      -0.100 -15.869   0.390  1.00  0.00    -0.398 OA
ATOM     26  H   UNL     1      -0.417 -16.708   0.781  1.00  0.00     0.209 HD
ENDBRANCH  24  25
ENDBRANCH  20  24
BRANCH  22  27
ATOM     27  O   UNL     1      -0.470 -12.190  -2.897  1.00  0.00    -0.393 OA
ATOM     28  H   UNL     1      -0.526 -11.227  -3.045  1.00  0.00     0.210 HD
ENDBRANCH  22  27
BRANCH  23  29
ATOM     29  N   UNL     1       1.706 -11.018  -1.676  1.00  0.00    -0.349 N 
ATOM     30  C   UNL     1       2.143  -9.914  -0.979  1.00  0.00     0.218 C 
ATOM     31  O   UNL     1       1.823  -9.714   0.189  1.00  0.00    -0.274 OA
ATOM     32  H   UNL     1       2.077 -11.218  -2.605  1.00  0.00     0.163 HD
BRANCH  30  33
ATOM     33  C   UNL     1       3.043  -8.986  -1.763  1.00  0.00     0.113 C 
BRANCH  33  34
ATOM     34  C   UNL     1       4.304  -9.726  -2.206  1.00  0.00     0.119 C 
BRANCH  34  35
ATOM     35  C   UNL     1       5.313  -9.822  -1.099  1.00  0.00     0.139 C 
ATOM     36  O   UNL     1       6.134  -8.986  -0.773  1.00  0.00    -0.650 OA
BRANCH  35  37
ATOM     37  O   UNL     1       5.245 -11.007  -0.460  1.00  0.00    -0.776 OA
ATOM     38  H   UNL     1       4.303 -11.270  -0.530  1.00  0.00     0.167 HD
ENDBRANCH  35  37
ENDBRANCH  34  35
ENDBRANCH  33  34
ENDBRANCH  30  33
ENDBRANCH  23  29
ENDBRANCH  17  18
ENDBRANCH  11  17
BRANCH  12  39
ATOM     39  O   UNL     1       5.842 -13.968  -0.791  1.00  0.00    -0.391 OA
ATOM     40  H   UNL     1       6.730 -14.371  -0.748  1.00  0.00     0.210 HD
ENDBRANCH  12  39
BRANCH  13  41
ATOM     41  N   UNL     1       7.105 -15.991  -2.152  1.00  0.00    -0.349 N 
ATOM     42  C   UNL     1       7.159 -17.317  -1.804  1.00  0.00     0.218 C 
ATOM     43  O   UNL     1       6.173 -18.048  -1.842  1.00  0.00    -0.274 OA
ATOM     44  H   UNL     1       7.971 -15.463  -2.212  1.00  0.00     0.163 HD
BRANCH  42  45
ATOM     45  C   UNL     1       8.524 -17.750  -1.327  1.00  0.00     0.113 C 
BRANCH  45  46
ATOM     46  C   UNL     1       9.281 -18.513  -2.403  1.00  0.00     0.119 C 
BRANCH  46  47
ATOM     47  C   UNL     1       9.883 -17.567  -3.400  1.00  0.00     0.139 C 
ATOM     48  O   UNL     1       9.346 -17.092  -4.386  1.00  0.00    -0.650 OA
BRANCH  47  49
ATOM     49  O   UNL     1      11.150 -17.236  -3.085  1.00  0.00    -0.776 OA
ATOM     50  H   UNL     1      11.650 -17.382  -3.915  1.00  0.00     0.167 HD
ENDBRANCH  47  49
ENDBRANCH  46  47
ENDBRANCH  45  46
ENDBRANCH  42  45
ENDBRANCH  13  41
ENDBRANCH   7   8
ENDBRANCH   1   7
BRANCH   2  51
ATOM     51  C   UNL     1       6.643 -14.252  -7.549  1.00  0.00     0.198 C 
BRANCH  51  52
ATOM     52  O   UNL     1       5.440 -15.014  -7.543  1.00  0.00    -0.398 OA
ATOM     53  H   UNL     1       5.655 -15.919  -7.841  1.00  0.00     0.209 HD
ENDBRANCH  51  52
ENDBRANCH   2  51
BRANCH   3  54
ATOM     54  O   UNL     1       8.363 -11.611  -4.339  1.00  0.00    -0.391 OA
ATOM     55  H   UNL     1       9.075 -10.999  -4.067  1.00  0.00     0.210 HD
ENDBRANCH   3  54
BRANCH   4  56
ATOM     56  N   UNL     1      10.193 -10.817  -6.460  1.00  0.00     0.090 N 
ATOM     57  H   UNL     1      10.806 -11.003  -5.677  1.00  0.00     0.313 HD
ATOM     58  H   UNL     1      10.784 -10.820  -7.299  1.00  0.00     0.313 HD
ENDBRANCH   4  56
BRANCH   5  59
ATOM     59  O   UNL     1       7.666 -10.030  -7.274  1.00  0.00    -0.348 OA
BRANCH  59  60
ATOM     60  C   UNL     1       6.572  -9.542  -6.475  1.00  0.00     0.186 C 
ATOM     61  C   UNL     1       6.996  -8.369  -5.554  1.00  0.00     0.179 C 
ATOM     62  O   UNL     1       6.182  -7.183  -5.668  1.00  0.00    -0.349 OA
ATOM     63  C   UNL     1       4.762  -7.356  -5.688  1.00  0.00     0.281 C 
ATOM     64  C   UNL     1       4.300  -8.541  -6.582  1.00  0.00     0.149 C 
ATOM     65  C   UNL     1       5.448  -9.108  -7.435  1.00  0.00     0.172 C 
BRANCH  61  66
ATOM     66  C   UNL     1       7.027  -8.792  -4.076  1.00  0.00     0.198 C 
BRANCH  66  67
ATOM     67  O   UNL     1       7.775  -7.861  -3.302  1.00  0.00    -0.398 OA
ATOM     68  H   UNL     1       8.718  -7.970  -3.529  1.00  0.00     0.209 HD
ENDBRANCH  66  67
ENDBRANCH  61  66
BRANCH  63  69
ATOM     69  O   UNL     1       4.176  -6.125  -6.098  1.00  0.00    -0.349 OA
BRANCH  69  70
ATOM     70  C   UNL     1       4.259  -5.044  -5.162  1.00  0.00     0.186 C 
ATOM     71  C   UNL     1       3.796  -3.705  -5.787  1.00  0.00     0.176 C 
ATOM     72  O   UNL     1       3.053  -2.885  -4.849  1.00  0.00    -0.379 OA
ATOM     73  C   UNL     1       3.599  -2.888  -3.525  1.00  0.00     0.196 C 
ATOM     74  C   UNL     1       3.497  -4.280  -2.876  1.00  0.00     0.139 C 
ATOM     75  C   UNL     1       3.356  -5.376  -3.950  1.00  0.00     0.174 C 
BRANCH  71  76
ATOM     76  C   UNL     1       4.951  -2.866  -6.352  1.00  0.00     0.198 C 
BRANCH  76  77
ATOM     77  O   UNL     1       6.161  -3.622  -6.325  1.00  0.00    -0.398 OA
ATOM     78  H   UNL     1       6.631  -3.363  -5.507  1.00  0.00     0.209 HD
ENDBRANCH  76  77
ENDBRANCH  71  76
BRANCH  74  79
ATOM     79  N   UNL     1       2.373  -4.346  -1.943  1.00  0.00    -0.352 N 
ATOM     80  C   UNL     1       2.511  -4.099  -0.597  1.00  0.00     0.218 C 
ATOM     81  O   UNL     1       3.564  -3.736  -0.086  1.00  0.00    -0.274 OA
ATOM     82  H   UNL     1       1.555  -4.857  -2.265  1.00  0.00     0.163 HD
BRANCH  80  83
ATOM     83  C   UNL     1       1.221  -4.280   0.173  1.00  0.00     0.113 C 
BRANCH  83  84
ATOM     84  C   UNL     1       1.053  -5.711   0.665  1.00  0.00     0.119 C 
BRANCH  84  85
ATOM     85  C   UNL     1       0.382  -6.560  -0.374  1.00  0.00     0.139 C 
ATOM     86  O   UNL     1       0.422  -6.414  -1.584  1.00  0.00    -0.650 OA
BRANCH  85  87
ATOM     87  O   UNL     1      -0.324  -7.568   0.173  1.00  0.00    -0.776 OA
ATOM     88  H   UNL     1       0.097  -8.379  -0.179  1.00  0.00     0.167 HD
ENDBRANCH  85  87
ENDBRANCH  84  85
ENDBRANCH  83  84
ENDBRANCH  80  83
ENDBRANCH  74  79
BRANCH  75  89
ATOM     89  O   UNL     1       1.970  -5.499  -4.329  1.00  0.00    -0.391 OA
ATOM     90  H   UNL     1       1.935  -5.783  -5.261  1.00  0.00     0.210 HD
ENDBRANCH  75  89
ENDBRANCH  69  70
ENDBRANCH  63  69
BRANCH  64  91
ATOM     91  N   UNL     1       2.987  -8.470  -7.246  1.00  0.00    -0.251 NA
ATOM     92  C   UNL     1       1.811  -8.361  -6.552  1.00  0.00     0.198 C 
ATOM     93  O   UNL     1       1.178  -7.312  -6.691  1.00  0.00    -0.280 OA
ATOM     94  H   UNL     1       2.969  -7.680  -7.883  1.00  0.00     0.131 HD
BRANCH  92  95
ATOM     95  C   UNL     1       1.254  -9.542  -5.800  1.00  0.00     0.107 C 
BRANCH  95  96
ATOM     96  C   UNL     1      -0.206  -9.219  -5.482  1.00  0.00     0.118 C 
BRANCH  96  97
ATOM     97  C   UNL     1      -0.405  -8.665  -4.106  1.00  0.00     0.139 C 
ATOM     98  O   UNL     1      -0.491  -9.282  -3.057  1.00  0.00    -0.650 OA
BRANCH  97  99
ATOM     99  O   UNL     1      -0.407  -7.315  -4.106  1.00  0.00    -0.776 OA
ATOM    100  H   UNL     1      -0.455  -7.078  -3.157  1.00  0.00     0.167 HD
ENDBRANCH  97  99
ENDBRANCH  96  97
ENDBRANCH  95  96
ENDBRANCH  92  95
ENDBRANCH  64  91
BRANCH  65 101
ATOM    101  O   UNL     1       5.921  -8.165  -8.394  1.00  0.00    -0.391 OA
ATOM    102  H   UNL     1       5.780  -8.563  -9.276  1.00  0.00     0.210 HD
ENDBRANCH  65 101
ENDBRANCH  59  60
ENDBRANCH   5  59
TORSDOF 44
ENDMDL
MODEL 7
REMARK VINA RESULT:      -5.1     27.824     31.841
REMARK WARNING: 32 MAX_TORS EXCEEDED!!!
REMARK  44 active torsions:
REMARK  status: ('A' for Active; 'I' for Inactive)
REMARK    1  A    between atoms: C_1  and  O_44 
REMARK    2  A    between atoms: C_2  and  C_6 
REMARK    3  A    between atoms: C_3  and  O_10 
REMARK    4  A    between atoms: C_4  and  N_12 
REMARK    5  A    between atoms: C_5  and  O_14 
REMARK    6  A    between atoms: C_6  and  O_7 
REMARK    7  A    between atoms: O_14  and  C_27 
REMARK    8  A    between atoms: O_16  and  C_21 
REMARK    9  A    between atoms: C_18  and  C_33 
REMARK   10  A    between atoms: O_20  and  C_33 
REMARK   11  A    between atoms: O_22  and  C_30 
REMARK   12  A    between atoms: O_22  and  C_70 
REMARK   13  A    between atoms: O_23  and  C_24 
REMARK   14  A    between atoms: C_24  and  C_28 
REMARK   15  A    between atoms: C_28  and  C_31 
REMARK       I    between atoms: N_29  and  C_32 
REMARK   16  A    between atoms: N_29  and  C_35 
REMARK   17  A    between atoms: C_31  and  C_32 
REMARK   18  A    between atoms: O_38  and  C_43 
REMARK   19  A    between atoms: C_40  and  C_55 
REMARK   20  A    between atoms: O_42  and  C_55 
REMARK   21  A    between atoms: O_44  and  C_52 
REMARK   22  A    between atoms: O_45  and  C_46 
REMARK   23  A    between atoms: C_46  and  C_50 
REMARK   24  A    between atoms: C_49  and  O_87 
REMARK   25  A    between atoms: C_50  and  C_53 
REMARK       I    between atoms: N_51  and  C_54 
REMARK   26  A    between atoms: N_51  and  C_57 
REMARK   27  A    between atoms: C_53  and  C_54 
REMARK   28  A    between atoms: O_60  and  C_65 
REMARK   29  A    between atoms: C_62  and  C_76 
REMARK   30  A    between atoms: O_64  and  C_76 
REMARK   31  A    between atoms: O_66  and  C_67 
REMARK   32  A    between atoms: C_67  and  C_71 
REMARK   33  A    between atoms: C_71  and  C_74 
REMARK       I    between atoms: N_72  and  C_75 
REMARK   34  A    between atoms: N_72  and  C_78 
REMARK   35  A    between atoms: C_74  and  C_75 
REMARK   36  A    between atoms: O_81  and  C_86 
REMARK   37  A    between atoms: C_83  and  C_98 
REMARK   38  A    between atoms: O_85  and  C_98 
REMARK   39  A    between atoms: O_87  and  C_95 
REMARK   40  A    between atoms: O_88  and  C_89 
REMARK   41  A    between atoms: C_89  and  C_93 
REMARK   42  A    between atoms: C_93  and  C_96 
REMARK       I    between atoms: N_94  and  C_97 
REMARK   43  A    between atoms: N_94  and  C_100 
REMARK   44  A    between atoms: C_96  and  C_97 
ROOT
ATOM      1  C   UNL     1     -13.086  -7.068  10.850  1.00  0.00     0.186 C 
ATOM      2  C   UNL     1     -11.992  -6.749  11.893  1.00  0.00     0.179 C 
ATOM      3  C   UNL     1     -14.212  -6.018  10.911  1.00  0.00     0.187 C 
ATOM      4  C   UNL     1     -14.702  -5.877  12.367  1.00  0.00     0.303 C 
ATOM      5  C   UNL     1     -13.510  -5.453  13.297  1.00  0.00     0.296 C 
ATOM      6  O   UNL     1     -12.247  -5.530  12.626  1.00  0.00    -0.349 OA
ENDROOT
BRANCH   1   7
ATOM      7  O   UNL     1     -12.520  -7.071   9.530  1.00  0.00    -0.348 OA
BRANCH   7   8
ATOM      8  C   UNL     1     -11.252  -6.417   9.398  1.00  0.00     0.286 C 
ATOM      9  O   UNL     1     -11.482  -5.213   8.660  1.00  0.00    -0.349 OA
ATOM     10  C   UNL     1     -10.316  -4.394   8.455  1.00  0.00     0.180 C 
ATOM     11  C   UNL     1      -9.124  -5.169   7.847  1.00  0.00     0.186 C 
ATOM     12  C   UNL     1      -9.542  -6.606   7.498  1.00  0.00     0.177 C 
ATOM     13  C   UNL     1     -10.211  -7.327   8.677  1.00  0.00     0.170 C 
BRANCH  10  14
ATOM     14  C   UNL     1      -9.927  -3.669   9.752  1.00  0.00     0.198 C 
BRANCH  14  15
ATOM     15  O   UNL     1     -11.059  -3.475  10.596  1.00  0.00    -0.398 OA
ATOM     16  H   UNL     1     -11.569  -2.718  10.250  1.00  0.00     0.209 HD
ENDBRANCH  14  15
ENDBRANCH  10  14
BRANCH  11  17
ATOM     17  O   UNL     1      -8.740  -4.504   6.634  1.00  0.00    -0.348 OA
BRANCH  17  18
ATOM     18  C   UNL     1      -7.989  -3.295   6.766  1.00  0.00     0.286 C 
ATOM     19  O   UNL     1      -8.675  -2.300   6.015  1.00  0.00    -0.352 OA
ATOM     20  C   UNL     1      -8.117  -0.977   6.122  1.00  0.00     0.150 C 
ATOM     21  C   UNL     1      -6.598  -0.959   6.319  1.00  0.00     0.068 C 
ATOM     22  C   UNL     1      -5.955  -2.171   5.665  1.00  0.00     0.148 C 
ATOM     23  C   UNL     1      -6.519  -3.473   6.276  1.00  0.00     0.168 C 
BRANCH  20  24
ATOM     24  C   UNL     1      -8.842  -0.224   7.246  1.00  0.00     0.196 C 
BRANCH  24  25
ATOM     25  O   UNL     1      -8.390   1.127   7.304  1.00  0.00    -0.398 OA
ATOM     26  H   UNL     1      -8.925   1.565   7.996  1.00  0.00     0.209 HD
ENDBRANCH  24  25
ENDBRANCH  20  24
BRANCH  22  27
ATOM     27  O   UNL     1      -6.198  -2.098   4.256  1.00  0.00    -0.393 OA
ATOM     28  H   UNL     1      -6.026  -2.994   3.908  1.00  0.00     0.210 HD
ENDBRANCH  22  27
BRANCH  23  29
ATOM     29  N   UNL     1      -6.325  -4.616   5.371  1.00  0.00    -0.349 N 
ATOM     30  C   UNL     1      -5.238  -5.445   5.529  1.00  0.00     0.218 C 
ATOM     31  O   UNL     1      -4.297  -5.151   6.260  1.00  0.00    -0.274 OA
ATOM     32  H   UNL     1      -7.142  -4.935   4.849  1.00  0.00     0.163 HD
BRANCH  30  33
ATOM     33  C   UNL     1      -5.305  -6.734   4.742  1.00  0.00     0.113 C 
BRANCH  33  34
ATOM     34  C   UNL     1      -6.107  -7.780   5.514  1.00  0.00     0.119 C 
BRANCH  34  35
ATOM     35  C   UNL     1      -7.157  -8.423   4.655  1.00  0.00     0.139 C 
ATOM     36  O   UNL     1      -8.364  -8.343   4.780  1.00  0.00    -0.650 OA
BRANCH  35  37
ATOM     37  O   UNL     1      -6.614  -9.170   3.673  1.00  0.00    -0.776 OA
ATOM     38  H   UNL     1      -7.317  -9.232   2.994  1.00  0.00     0.167 HD
ENDBRANCH  35  37
ENDBRANCH  34  35
ENDBRANCH  33  34
ENDBRANCH  30  33
ENDBRANCH  23  29
ENDBRANCH  17  18
ENDBRANCH  11  17
BRANCH  12  39
ATOM     39  O   UNL     1     -10.396  -6.629   6.339  1.00  0.00    -0.391 OA
ATOM     40  H   UNL     1     -10.282  -7.496   5.905  1.00  0.00     0.210 HD
ENDBRANCH  12  39
BRANCH  13  41
ATOM     41  N   UNL     1     -10.747  -8.605   8.213  1.00  0.00    -0.349 N 
ATOM     42  C   UNL     1     -10.014  -9.764   8.241  1.00  0.00     0.218 C 
ATOM     43  O   UNL     1      -8.814  -9.777   8.499  1.00  0.00    -0.274 OA
ATOM     44  H   UNL     1     -11.757  -8.664   8.108  1.00  0.00     0.163 HD
BRANCH  42  45
ATOM     45  C   UNL     1     -10.821 -10.985   7.871  1.00  0.00     0.113 C 
BRANCH  45  46
ATOM     46  C   UNL     1     -10.933 -11.960   9.033  1.00  0.00     0.119 C 
BRANCH  46  47
ATOM     47  C   UNL     1     -11.074 -13.368   8.534  1.00  0.00     0.139 C 
ATOM     48  O   UNL     1     -10.485 -13.884   7.600  1.00  0.00    -0.650 OA
BRANCH  47  49
ATOM     49  O   UNL     1     -11.949 -14.081   9.269  1.00  0.00    -0.776 OA
ATOM     50  H   UNL     1     -12.348 -14.706   8.629  1.00  0.00     0.167 HD
ENDBRANCH  47  49
ENDBRANCH  46  47
ENDBRANCH  45  46
ENDBRANCH  42  45
ENDBRANCH  13  41
ENDBRANCH   7   8
ENDBRANCH   1   7
BRANCH   2  51
ATOM     51  C   UNL     1     -11.783  -7.920  12.869  1.00  0.00     0.198 C 
BRANCH  51  52
ATOM     52  O   UNL     1     -10.606  -7.730  13.646  1.00  0.00    -0.398 OA
ATOM     53  H   UNL     1     -10.379  -6.780  13.621  1.00  0.00     0.209 HD
ENDBRANCH  51  52
ENDBRANCH   2  51
BRANCH   3  54
ATOM     54  O   UNL     1     -13.793  -4.739  10.401  1.00  0.00    -0.391 OA
ATOM     55  H   UNL     1     -13.613  -4.161  11.168  1.00  0.00     0.210 HD
ENDBRANCH   3  54
BRANCH   4  56
ATOM     56  N   UNL     1     -15.897  -5.015  12.395  1.00  0.00     0.090 N 
ATOM     57  H   UNL     1     -16.749  -5.557  12.334  1.00  0.00     0.313 HD
ATOM     58  H   UNL     1     -15.917  -4.547  13.308  1.00  0.00     0.313 HD
ENDBRANCH   4  56
BRANCH   5  59
ATOM     59  O   UNL     1     -13.662  -4.091  13.742  1.00  0.00    -0.348 OA
BRANCH  59  60
ATOM     60  C   UNL     1     -13.283  -3.852  15.111  1.00  0.00     0.186 C 
ATOM     61  C   UNL     1     -11.927  -3.108  15.221  1.00  0.00     0.179 C 
ATOM     62  O   UNL     1     -11.956  -1.911  16.027  1.00  0.00    -0.349 OA
ATOM     63  C   UNL     1     -12.630  -1.979  17.288  1.00  0.00     0.281 C 
ATOM     64  C   UNL     1     -13.983  -2.742  17.220  1.00  0.00     0.149 C 
ATOM     65  C   UNL     1     -14.412  -3.039  15.773  1.00  0.00     0.172 C 
BRANCH  61  66
ATOM     66  C   UNL     1     -10.820  -4.027  15.763  1.00  0.00     0.198 C 
BRANCH  66  67
ATOM     67  O   UNL     1     -10.533  -5.069  14.838  1.00  0.00    -0.398 OA
ATOM     68  H   UNL     1     -10.932  -4.827  13.980  1.00  0.00     0.209 HD
ENDBRANCH  66  67
ENDBRANCH  61  66
BRANCH  63  69
ATOM     69  O   UNL     1     -12.795  -0.650  17.770  1.00  0.00    -0.349 OA
BRANCH  69  70
ATOM     70  C   UNL     1     -11.989   0.354  17.142  1.00  0.00     0.186 C 
ATOM     71  C   UNL     1     -12.836   1.563  16.677  1.00  0.00     0.176 C 
ATOM     72  O   UNL     1     -12.147   2.826  16.867  1.00  0.00    -0.379 OA
ATOM     73  C   UNL     1     -10.754   2.777  16.536  1.00  0.00     0.196 C 
ATOM     74  C   UNL     1      -9.980   1.849  17.490  1.00  0.00     0.139 C 
ATOM     75  C   UNL     1     -10.931   0.839  18.161  1.00  0.00     0.174 C 
BRANCH  71  76
ATOM     76  C   UNL     1     -13.274   1.469  15.208  1.00  0.00     0.198 C 
BRANCH  76  77
ATOM     77  O   UNL     1     -12.681   0.326  14.595  1.00  0.00    -0.398 OA
ATOM     78  H   UNL     1     -12.596  -0.351  15.295  1.00  0.00     0.209 HD
ENDBRANCH  76  77
ENDBRANCH  71  76
BRANCH  74  79
ATOM     79  N   UNL     1      -9.265   2.618  18.509  1.00  0.00    -0.352 N 
ATOM     80  C   UNL     1      -7.928   2.921  18.405  1.00  0.00     0.218 C 
ATOM     81  O   UNL     1      -7.249   2.637  17.425  1.00  0.00    -0.274 OA
ATOM     82  H   UNL     1      -9.709   2.670  19.421  1.00  0.00     0.163 HD
BRANCH  80  83
ATOM     83  C   UNL     1      -7.398   3.676  19.604  1.00  0.00     0.113 C 
BRANCH  83  84
ATOM     84  C   UNL     1      -5.942   4.081  19.419  1.00  0.00     0.119 C 
BRANCH  84  85
ATOM     85  C   UNL     1      -5.836   5.507  18.967  1.00  0.00     0.139 C 
ATOM     86  O   UNL     1      -6.111   6.507  19.609  1.00  0.00    -0.650 OA
BRANCH  85  87
ATOM     87  O   UNL     1      -5.385   5.606  17.703  1.00  0.00    -0.776 OA
ATOM     88  H   UNL     1      -6.162   5.385  17.148  1.00  0.00     0.167 HD
ENDBRANCH  85  87
ENDBRANCH  84  85
ENDBRANCH  83  84
ENDBRANCH  80  83
ENDBRANCH  74  79
BRANCH  75  89
ATOM     89  O   UNL     1     -11.538   1.449  19.319  1.00  0.00    -0.391 OA
ATOM     90  H   UNL     1     -12.293   1.987  19.016  1.00  0.00     0.210 HD
ENDBRANCH  75  89
ENDBRANCH  69  70
ENDBRANCH  63  69
BRANCH  64  91
ATOM     91  N   UNL     1     -15.067  -2.362  18.142  1.00  0.00    -0.251 NA
ATOM     92  C   UNL     1     -15.133  -2.810  19.434  1.00  0.00     0.198 C 
ATOM     93  O   UNL     1     -15.001  -1.968  20.324  1.00  0.00    -0.280 OA
ATOM     94  H   UNL     1     -15.099  -1.351  18.233  1.00  0.00     0.131 HD
BRANCH  92  95
ATOM     95  C   UNL     1     -15.519  -4.237  19.729  1.00  0.00     0.107 C 
BRANCH  95  96
ATOM     96  C   UNL     1     -14.544  -4.752  20.787  1.00  0.00     0.118 C 
BRANCH  96  97
ATOM     97  C   UNL     1     -13.286  -5.320  20.207  1.00  0.00     0.139 C 
ATOM     98  O   UNL     1     -13.059  -5.595  19.041  1.00  0.00    -0.650 OA
BRANCH  97  99
ATOM     99  O   UNL     1     -12.317  -5.443  21.139  1.00  0.00    -0.776 OA
ATOM    100  H   UNL     1     -12.466  -6.332  21.520  1.00  0.00     0.167 HD
ENDBRANCH  97  99
ENDBRANCH  96  97
ENDBRANCH  95  96
ENDBRANCH  92  95
ENDBRANCH  64  91
BRANCH  65 101
ATOM    101  O   UNL     1     -14.692  -1.849  15.041  1.00  0.00    -0.391 OA
ATOM    102  H   UNL     1     -14.012  -1.780  14.342  1.00  0.00     0.210 HD
ENDBRANCH  65 101
ENDBRANCH  59  60
ENDBRANCH   5  59
TORSDOF 44
ENDMDL
MODEL 8
REMARK VINA RESULT:      -5.1     23.858     27.721
REMARK WARNING: 32 MAX_TORS EXCEEDED!!!
REMARK  44 active torsions:
REMARK  status: ('A' for Active; 'I' for Inactive)
REMARK    1  A    between atoms: C_1  and  O_44 
REMARK    2  A    between atoms: C_2  and  C_6 
REMARK    3  A    between atoms: C_3  and  O_10 
REMARK    4  A    between atoms: C_4  and  N_12 
REMARK    5  A    between atoms: C_5  and  O_14 
REMARK    6  A    between atoms: C_6  and  O_7 
REMARK    7  A    between atoms: O_14  and  C_27 
REMARK    8  A    between atoms: O_16  and  C_21 
REMARK    9  A    between atoms: C_18  and  C_33 
REMARK   10  A    between atoms: O_20  and  C_33 
REMARK   11  A    between atoms: O_22  and  C_30 
REMARK   12  A    between atoms: O_22  and  C_70 
REMARK   13  A    between atoms: O_23  and  C_24 
REMARK   14  A    between atoms: C_24  and  C_28 
REMARK   15  A    between atoms: C_28  and  C_31 
REMARK       I    between atoms: N_29  and  C_32 
REMARK   16  A    between atoms: N_29  and  C_35 
REMARK   17  A    between atoms: C_31  and  C_32 
REMARK   18  A    between atoms: O_38  and  C_43 
REMARK   19  A    between atoms: C_40  and  C_55 
REMARK   20  A    between atoms: O_42  and  C_55 
REMARK   21  A    between atoms: O_44  and  C_52 
REMARK   22  A    between atoms: O_45  and  C_46 
REMARK   23  A    between atoms: C_46  and  C_50 
REMARK   24  A    between atoms: C_49  and  O_87 
REMARK   25  A    between atoms: C_50  and  C_53 
REMARK       I    between atoms: N_51  and  C_54 
REMARK   26  A    between atoms: N_51  and  C_57 
REMARK   27  A    between atoms: C_53  and  C_54 
REMARK   28  A    between atoms: O_60  and  C_65 
REMARK   29  A    between atoms: C_62  and  C_76 
REMARK   30  A    between atoms: O_64  and  C_76 
REMARK   31  A    between atoms: O_66  and  C_67 
REMARK   32  A    between atoms: C_67  and  C_71 
REMARK   33  A    between atoms: C_71  and  C_74 
REMARK       I    between atoms: N_72  and  C_75 
REMARK   34  A    between atoms: N_72  and  C_78 
REMARK   35  A    between atoms: C_74  and  C_75 
REMARK   36  A    between atoms: O_81  and  C_86 
REMARK   37  A    between atoms: C_83  and  C_98 
REMARK   38  A    between atoms: O_85  and  C_98 
REMARK   39  A    between atoms: O_87  and  C_95 
REMARK   40  A    between atoms: O_88  and  C_89 
REMARK   41  A    between atoms: C_89  and  C_93 
REMARK   42  A    between atoms: C_93  and  C_96 
REMARK       I    between atoms: N_94  and  C_97 
REMARK   43  A    between atoms: N_94  and  C_100 
REMARK   44  A    between atoms: C_96  and  C_97 
ROOT
ATOM      1  C   UNL     1      -6.818 -18.104  31.188  1.00  0.00     0.186 C 
ATOM      2  C   UNL     1      -6.156 -16.770  31.600  1.00  0.00     0.179 C 
ATOM      3  C   UNL     1      -8.349 -17.948  31.118  1.00  0.00     0.187 C 
ATOM      4  C   UNL     1      -8.861 -17.331  32.435  1.00  0.00     0.303 C 
ATOM      5  C   UNL     1      -8.182 -15.936  32.675  1.00  0.00     0.296 C 
ATOM      6  O   UNL     1      -7.106 -15.694  31.761  1.00  0.00    -0.349 OA
ENDROOT
BRANCH   1   7
ATOM      7  O   UNL     1      -6.329 -18.518  29.902  1.00  0.00    -0.348 OA
BRANCH   7   8
ATOM      8  C   UNL     1      -5.343 -19.557  29.920  1.00  0.00     0.286 C 
ATOM      9  O   UNL     1      -4.082 -18.936  29.648  1.00  0.00    -0.349 OA
ATOM     10  C   UNL     1      -2.952 -19.827  29.659  1.00  0.00     0.180 C 
ATOM     11  C   UNL     1      -3.139 -21.065  28.751  1.00  0.00     0.186 C 
ATOM     12  C   UNL     1      -4.455 -20.956  27.964  1.00  0.00     0.177 C 
ATOM     13  C   UNL     1      -5.660 -20.665  28.869  1.00  0.00     0.170 C 
BRANCH  10  14
ATOM     14  C   UNL     1      -2.586 -20.222  31.098  1.00  0.00     0.198 C 
BRANCH  14  15
ATOM     15  O   UNL     1      -2.407 -19.072  31.920  1.00  0.00    -0.398 OA
ATOM     16  H   UNL     1      -1.573 -19.180  32.415  1.00  0.00     0.209 HD
ENDBRANCH  14  15
ENDBRANCH  10  14
BRANCH  11  17
ATOM     17  O   UNL     1      -2.054 -21.090  27.813  1.00  0.00    -0.348 OA
BRANCH  17  18
ATOM     18  C   UNL     1      -0.745 -20.834  28.327  1.00  0.00     0.286 C 
ATOM     19  O   UNL     1      -0.001 -20.229  27.276  1.00  0.00    -0.352 OA
ATOM     20  C   UNL     1       1.320 -19.796  27.648  1.00  0.00     0.150 C 
ATOM     21  C   UNL     1       1.976 -20.665  28.727  1.00  0.00     0.068 C 
ATOM     22  C   UNL     1       1.473 -22.096  28.646  1.00  0.00     0.148 C 
ATOM     23  C   UNL     1      -0.060 -22.138  28.839  1.00  0.00     0.168 C 
BRANCH  20  24
ATOM     24  C   UNL     1       1.258 -18.322  28.069  1.00  0.00     0.196 C 
BRANCH  24  25
ATOM     25  O   UNL     1       2.553 -17.866  28.454  1.00  0.00    -0.398 OA
ATOM     26  H   UNL     1       2.724 -17.056  27.933  1.00  0.00     0.209 HD
ENDBRANCH  24  25
ENDBRANCH  20  24
BRANCH  22  27
ATOM     27  O   UNL     1       1.862 -22.635  27.378  1.00  0.00    -0.393 OA
ATOM     28  H   UNL     1       1.169 -23.278  27.136  1.00  0.00     0.210 HD
ENDBRANCH  22  27
BRANCH  23  29
ATOM     29  N   UNL     1      -0.635 -23.372  28.283  1.00  0.00    -0.349 N 
ATOM     30  C   UNL     1      -1.359 -24.220  29.090  1.00  0.00     0.218 C 
ATOM     31  O   UNL     1      -1.367 -24.106  30.313  1.00  0.00    -0.274 OA
ATOM     32  H   UNL     1      -0.737 -23.419  27.269  1.00  0.00     0.163 HD
BRANCH  30  33
ATOM     33  C   UNL     1      -2.138 -25.286  28.353  1.00  0.00     0.113 C 
BRANCH  33  34
ATOM     34  C   UNL     1      -3.360 -24.670  27.675  1.00  0.00     0.119 C 
BRANCH  34  35
ATOM     35  C   UNL     1      -3.131 -24.445  26.209  1.00  0.00     0.139 C 
ATOM     36  O   UNL     1      -3.320 -25.233  25.302  1.00  0.00    -0.650 OA
BRANCH  35  37
ATOM     37  O   UNL     1      -2.642 -23.213  25.961  1.00  0.00    -0.776 OA
ATOM     38  H   UNL     1      -1.694 -23.273  26.204  1.00  0.00     0.167 HD
ENDBRANCH  35  37
ENDBRANCH  34  35
ENDBRANCH  33  34
ENDBRANCH  30  33
ENDBRANCH  23  29
ENDBRANCH  17  18
ENDBRANCH  11  17
BRANCH  12  39
ATOM     39  O   UNL     1      -4.354 -19.968  26.921  1.00  0.00    -0.391 OA
ATOM     40  H   UNL     1      -3.405 -19.813  26.752  1.00  0.00     0.210 HD
ENDBRANCH  12  39
BRANCH  13  41
ATOM     41  N   UNL     1      -6.828 -20.387  28.035  1.00  0.00    -0.349 N 
ATOM     42  C   UNL     1      -8.087 -20.823  28.364  1.00  0.00     0.218 C 
ATOM     43  O   UNL     1      -8.291 -21.609  29.284  1.00  0.00    -0.274 OA
ATOM     44  H   UNL     1      -6.729 -19.651  27.342  1.00  0.00     0.163 HD
BRANCH  42  45
ATOM     45  C   UNL     1      -9.159 -20.282  27.449  1.00  0.00     0.113 C 
BRANCH  45  46
ATOM     46  C   UNL     1     -10.339 -19.726  28.232  1.00  0.00     0.119 C 
BRANCH  46  47
ATOM     47  C   UNL     1     -10.894 -18.505  27.559  1.00  0.00     0.139 C 
ATOM     48  O   UNL     1     -12.053 -18.296  27.245  1.00  0.00    -0.650 OA
BRANCH  47  49
ATOM     49  O   UNL     1      -9.946 -17.574  27.336  1.00  0.00    -0.776 OA
ATOM     50  H   UNL     1     -10.425 -16.722  27.405  1.00  0.00     0.167 HD
ENDBRANCH  47  49
ENDBRANCH  46  47
ENDBRANCH  45  46
ENDBRANCH  42  45
ENDBRANCH  13  41
ENDBRANCH   7   8
ENDBRANCH   1   7
BRANCH   2  51
ATOM     51  C   UNL     1      -5.314 -16.928  32.878  1.00  0.00     0.198 C 
BRANCH  51  52
ATOM     52  O   UNL     1      -4.913 -15.659  33.381  1.00  0.00    -0.398 OA
ATOM     53  H   UNL     1      -4.541 -15.792  34.274  1.00  0.00     0.209 HD
ENDBRANCH  51  52
ENDBRANCH   2  51
BRANCH   3  54
ATOM     54  O   UNL     1      -8.764 -17.146  29.997  1.00  0.00    -0.391 OA
ATOM     55  H   UNL     1      -8.682 -16.209  30.260  1.00  0.00     0.210 HD
ENDBRANCH   3  54
BRANCH   4  56
ATOM     56  N   UNL     1     -10.335 -17.354  32.440  1.00  0.00     0.090 N 
ATOM     57  H   UNL     1     -10.722 -16.606  31.878  1.00  0.00     0.313 HD
ATOM     58  H   UNL     1     -10.630 -18.231  31.995  1.00  0.00     0.313 HD
ENDBRANCH   4  56
BRANCH   5  59
ATOM     59  O   UNL     1      -9.128 -14.864  32.499  1.00  0.00    -0.348 OA
BRANCH  59  60
ATOM     60  C   UNL     1      -8.851 -13.676  33.264  1.00  0.00     0.186 C 
ATOM     61  C   UNL     1      -7.636 -13.859  34.210  1.00  0.00     0.179 C 
ATOM     62  O   UNL     1      -6.609 -12.854  34.079  1.00  0.00    -0.349 OA
ATOM     63  C   UNL     1      -7.026 -11.487  34.008  1.00  0.00     0.281 C 
ATOM     64  C   UNL     1      -8.260 -11.269  33.087  1.00  0.00     0.149 C 
ATOM     65  C   UNL     1      -8.604 -12.525  32.269  1.00  0.00     0.172 C 
BRANCH  61  66
ATOM     66  C   UNL     1      -8.071 -13.914  35.684  1.00  0.00     0.198 C 
BRANCH  66  67
ATOM     67  O   UNL     1      -7.204 -14.759  36.433  1.00  0.00    -0.398 OA
ATOM     68  H   UNL     1      -6.583 -15.181  35.808  1.00  0.00     0.209 HD
ENDBRANCH  66  67
ENDBRANCH  61  66
BRANCH  63  69
ATOM     69  O   UNL     1      -5.910 -10.708  33.591  1.00  0.00    -0.349 OA
BRANCH  69  70
ATOM     70  C   UNL     1      -4.966 -10.361  34.610  1.00  0.00     0.186 C 
ATOM     71  C   UNL     1      -5.305 -11.036  35.962  1.00  0.00     0.176 C 
ATOM     72  O   UNL     1      -4.118 -11.463  36.679  1.00  0.00    -0.379 OA
ATOM     73  C   UNL     1      -3.039 -10.523  36.617  1.00  0.00     0.196 C 
ATOM     74  C   UNL     1      -2.503 -10.374  35.181  1.00  0.00     0.139 C 
ATOM     75  C   UNL     1      -3.561 -10.820  34.153  1.00  0.00     0.174 C 
BRANCH  71  76
ATOM     76  C   UNL     1      -6.138 -10.146  36.894  1.00  0.00     0.198 C 
BRANCH  76  77
ATOM     77  O   UNL     1      -7.147 -10.922  37.536  1.00  0.00    -0.398 OA
ATOM     78  H   UNL     1      -7.989 -10.709  37.087  1.00  0.00     0.209 HD
ENDBRANCH  76  77
ENDBRANCH  71  76
BRANCH  74  79
ATOM     79  N   UNL     1      -1.271 -11.140  34.996  1.00  0.00    -0.352 N 
ATOM     80  C   UNL     1      -0.041 -10.675  35.401  1.00  0.00     0.218 C 
ATOM     81  O   UNL     1       0.110  -9.622  36.010  1.00  0.00    -0.274 OA
ATOM     82  H   UNL     1      -1.308 -11.886  34.308  1.00  0.00     0.163 HD
BRANCH  80  83
ATOM     83  C   UNL     1       1.090 -11.616  35.055  1.00  0.00     0.113 C 
BRANCH  83  84
ATOM     84  C   UNL     1       2.085 -10.977  34.096  1.00  0.00     0.119 C 
BRANCH  84  85
ATOM     85  C   UNL     1       1.393 -10.460  32.871  1.00  0.00     0.139 C 
ATOM     86  O   UNL     1       1.420  -9.321  32.433  1.00  0.00    -0.650 OA
BRANCH  85  87
ATOM     87  O   UNL     1       0.682 -11.418  32.247  1.00  0.00    -0.776 OA
ATOM     88  H   UNL     1       0.642 -11.123  31.313  1.00  0.00     0.167 HD
ENDBRANCH  85  87
ENDBRANCH  84  85
ENDBRANCH  83  84
ENDBRANCH  80  83
ENDBRANCH  74  79
BRANCH  75  89
ATOM     89  O   UNL     1      -3.491 -12.251  33.984  1.00  0.00    -0.391 OA
ATOM     90  H   UNL     1      -3.152 -12.433  33.088  1.00  0.00     0.210 HD
ENDBRANCH  75  89
ENDBRANCH  69  70
ENDBRANCH  63  69
BRANCH  64  91
ATOM     91  N   UNL     1      -8.408  -9.986  32.379  1.00  0.00    -0.251 NA
ATOM     92  C   UNL     1      -9.120  -8.934  32.891  1.00  0.00     0.198 C 
ATOM     93  O   UNL     1      -8.483  -7.921  33.186  1.00  0.00    -0.280 OA
ATOM     94  H   UNL     1      -7.492  -9.592  32.192  1.00  0.00     0.131 HD
BRANCH  92  95
ATOM     95  C   UNL     1     -10.626  -8.974  32.925  1.00  0.00     0.107 C 
BRANCH  95  96
ATOM     96  C   UNL     1     -11.114  -8.495  31.558  1.00  0.00     0.118 C 
BRANCH  96  97
ATOM     97  C   UNL     1     -11.698  -9.590  30.720  1.00  0.00     0.139 C 
ATOM     98  O   UNL     1     -12.856  -9.719  30.361  1.00  0.00    -0.650 OA
BRANCH  97  99
ATOM     99  O   UNL     1     -10.751 -10.453  30.295  1.00  0.00    -0.776 OA
ATOM    100  H   UNL     1     -10.333  -9.993  29.539  1.00  0.00     0.167 HD
ENDBRANCH  97  99
ENDBRANCH  96  97
ENDBRANCH  95  96
ENDBRANCH  92  95
ENDBRANCH  64  91
BRANCH  65 101
ATOM    101  O   UNL     1      -7.578 -12.857  31.337  1.00  0.00    -0.391 OA
ATOM    102  H   UNL     1      -7.449 -12.074  30.767  1.00  0.00     0.210 HD
ENDBRANCH  65 101
ENDBRANCH  59  60
ENDBRANCH   5  59
TORSDOF 44
ENDMDL
MODEL 9
REMARK VINA RESULT:      -5.1     19.536     24.639
REMARK WARNING: 32 MAX_TORS EXCEEDED!!!
REMARK  44 active torsions:
REMARK  status: ('A' for Active; 'I' for Inactive)
REMARK    1  A    between atoms: C_1  and  O_44 
REMARK    2  A    between atoms: C_2  and  C_6 
REMARK    3  A    between atoms: C_3  and  O_10 
REMARK    4  A    between atoms: C_4  and  N_12 
REMARK    5  A    between atoms: C_5  and  O_14 
REMARK    6  A    between atoms: C_6  and  O_7 
REMARK    7  A    between atoms: O_14  and  C_27 
REMARK    8  A    between atoms: O_16  and  C_21 
REMARK    9  A    between atoms: C_18  and  C_33 
REMARK   10  A    between atoms: O_20  and  C_33 
REMARK   11  A    between atoms: O_22  and  C_30 
REMARK   12  A    between atoms: O_22  and  C_70 
REMARK   13  A    between atoms: O_23  and  C_24 
REMARK   14  A    between atoms: C_24  and  C_28 
REMARK   15  A    between atoms: C_28  and  C_31 
REMARK       I    between atoms: N_29  and  C_32 
REMARK   16  A    between atoms: N_29  and  C_35 
REMARK   17  A    between atoms: C_31  and  C_32 
REMARK   18  A    between atoms: O_38  and  C_43 
REMARK   19  A    between atoms: C_40  and  C_55 
REMARK   20  A    between atoms: O_42  and  C_55 
REMARK   21  A    between atoms: O_44  and  C_52 
REMARK   22  A    between atoms: O_45  and  C_46 
REMARK   23  A    between atoms: C_46  and  C_50 
REMARK   24  A    between atoms: C_49  and  O_87 
REMARK   25  A    between atoms: C_50  and  C_53 
REMARK       I    between atoms: N_51  and  C_54 
REMARK   26  A    between atoms: N_51  and  C_57 
REMARK   27  A    between atoms: C_53  and  C_54 
REMARK   28  A    between atoms: O_60  and  C_65 
REMARK   29  A    between atoms: C_62  and  C_76 
REMARK   30  A    between atoms: O_64  and  C_76 
REMARK   31  A    between atoms: O_66  and  C_67 
REMARK   32  A    between atoms: C_67  and  C_71 
REMARK   33  A    between atoms: C_71  and  C_74 
REMARK       I    between atoms: N_72  and  C_75 
REMARK   34  A    between atoms: N_72  and  C_78 
REMARK   35  A    between atoms: C_74  and  C_75 
REMARK   36  A    between atoms: O_81  and  C_86 
REMARK   37  A    between atoms: C_83  and  C_98 
REMARK   38  A    between atoms: O_85  and  C_98 
REMARK   39  A    between atoms: O_87  and  C_95 
REMARK   40  A    between atoms: O_88  and  C_89 
REMARK   41  A    between atoms: C_89  and  C_93 
REMARK   42  A    between atoms: C_93  and  C_96 
REMARK       I    between atoms: N_94  and  C_97 
REMARK   43  A    between atoms: N_94  and  C_100 
REMARK   44  A    between atoms: C_96  and  C_97 
ROOT
ATOM      1  C   UNL     1       2.041 -20.515   0.188  1.00  0.00     0.186 C 
ATOM      2  C   UNL     1       2.195 -19.119   0.831  1.00  0.00     0.179 C 
ATOM      3  C   UNL     1       2.590 -20.510  -1.251  1.00  0.00     0.187 C 
ATOM      4  C   UNL     1       1.957 -19.342  -2.036  1.00  0.00     0.303 C 
ATOM      5  C   UNL     1       2.278 -17.980  -1.326  1.00  0.00     0.296 C 
ATOM      6  O   UNL     1       2.861 -18.170  -0.031  1.00  0.00    -0.349 OA
ENDROOT
BRANCH   1   7
ATOM      7  O   UNL     1       2.757 -21.493   0.960  1.00  0.00    -0.348 OA
BRANCH   7   8
ATOM      8  C   UNL     1       1.953 -22.318   1.811  1.00  0.00     0.286 C 
ATOM      9  O   UNL     1       0.606 -21.849   1.692  1.00  0.00    -0.349 OA
ATOM     10  C   UNL     1      -0.364 -22.587   2.458  1.00  0.00     0.180 C 
ATOM     11  C   UNL     1       0.017 -22.732   3.950  1.00  0.00     0.186 C 
ATOM     12  C   UNL     1       1.291 -21.930   4.257  1.00  0.00     0.177 C 
ATOM     13  C   UNL     1       2.439 -22.257   3.292  1.00  0.00     0.170 C 
BRANCH  10  14
ATOM     14  C   UNL     1      -0.650 -23.948   1.805  1.00  0.00     0.198 C 
BRANCH  14  15
ATOM     15  O   UNL     1      -1.737 -23.863   0.888  1.00  0.00    -0.398 OA
ATOM     16  H   UNL     1      -1.501 -23.216   0.196  1.00  0.00     0.209 HD
ENDBRANCH  14  15
ENDBRANCH  10  14
BRANCH  11  17
ATOM     17  O   UNL     1      -1.057 -22.189   4.732  1.00  0.00    -0.348 OA
BRANCH  17  18
ATOM     18  C   UNL     1      -1.889 -23.120   5.428  1.00  0.00     0.286 C 
ATOM     19  O   UNL     1      -3.197 -22.563   5.455  1.00  0.00    -0.352 OA
ATOM     20  C   UNL     1      -4.203 -23.421   6.025  1.00  0.00     0.150 C 
ATOM     21  C   UNL     1      -3.677 -24.341   7.131  1.00  0.00     0.068 C 
ATOM     22  C   UNL     1      -2.507 -23.699   7.857  1.00  0.00     0.148 C 
ATOM     23  C   UNL     1      -1.357 -23.407   6.867  1.00  0.00     0.168 C 
BRANCH  20  24
ATOM     24  C   UNL     1      -4.873 -24.217   4.897  1.00  0.00     0.196 C 
BRANCH  24  25
ATOM     25  O   UNL     1      -4.454 -25.579   4.941  1.00  0.00    -0.398 OA
ATOM     26  H   UNL     1      -5.186 -26.103   4.560  1.00  0.00     0.209 HD
ENDBRANCH  24  25
ENDBRANCH  20  24
BRANCH  22  27
ATOM     27  O   UNL     1      -2.976 -22.505   8.491  1.00  0.00    -0.393 OA
ATOM     28  H   UNL     1      -2.389 -21.789   8.182  1.00  0.00     0.210 HD
ENDBRANCH  22  27
BRANCH  23  29
ATOM     29  N   UNL     1      -0.454 -22.369   7.387  1.00  0.00    -0.349 N 
ATOM     30  C   UNL     1       0.851 -22.681   7.693  1.00  0.00     0.218 C 
ATOM     31  O   UNL     1       1.245 -23.842   7.757  1.00  0.00    -0.274 OA
ATOM     32  H   UNL     1      -0.725 -21.399   7.228  1.00  0.00     0.163 HD
BRANCH  30  33
ATOM     33  C   UNL     1       1.748 -21.488   7.932  1.00  0.00     0.113 C 
BRANCH  33  34
ATOM     34  C   UNL     1       2.746 -21.795   9.047  1.00  0.00     0.119 C 
BRANCH  34  35
ATOM     35  C   UNL     1       4.151 -21.890   8.528  1.00  0.00     0.139 C 
ATOM     36  O   UNL     1       5.015 -21.034   8.573  1.00  0.00    -0.650 OA
BRANCH  35  37
ATOM     37  O   UNL     1       4.392 -23.081   7.945  1.00  0.00    -0.776 OA
ATOM     38  H   UNL     1       4.812 -22.855   7.089  1.00  0.00     0.167 HD
ENDBRANCH  35  37
ENDBRANCH  34  35
ENDBRANCH  33  34
ENDBRANCH  30  33
ENDBRANCH  23  29
ENDBRANCH  17  18
ENDBRANCH  11  17
BRANCH  12  39
ATOM     39  O   UNL     1       1.023 -20.516   4.266  1.00  0.00    -0.391 OA
ATOM     40  H   UNL     1       1.237 -20.179   5.157  1.00  0.00     0.210 HD
ENDBRANCH  12  39
BRANCH  13  41
ATOM     41  N   UNL     1       3.541 -21.325   3.526  1.00  0.00    -0.349 N 
ATOM     42  C   UNL     1       4.575 -21.607   4.381  1.00  0.00     0.218 C 
ATOM     43  O   UNL     1       4.563 -22.581   5.128  1.00  0.00    -0.274 OA
ATOM     44  H   UNL     1       3.653 -20.573   2.850  1.00  0.00     0.163 HD
BRANCH  42  45
ATOM     45  C   UNL     1       5.677 -20.576   4.340  1.00  0.00     0.113 C 
BRANCH  45  46
ATOM     46  C   UNL     1       5.479 -19.498   5.395  1.00  0.00     0.119 C 
BRANCH  46  47
ATOM     47  C   UNL     1       4.684 -18.353   4.840  1.00  0.00     0.139 C 
ATOM     48  O   UNL     1       3.537 -18.379   4.429  1.00  0.00    -0.650 OA
BRANCH  47  49
ATOM     49  O   UNL     1       5.379 -17.198   4.856  1.00  0.00    -0.776 OA
ATOM     50  H   UNL     1       5.959 -17.278   5.641  1.00  0.00     0.167 HD
ENDBRANCH  47  49
ENDBRANCH  46  47
ENDBRANCH  45  46
ENDBRANCH  42  45
ENDBRANCH  13  41
ENDBRANCH   7   8
ENDBRANCH   1   7
BRANCH   2  51
ATOM     51  C   UNL     1       0.840 -18.556   1.292  1.00  0.00     0.198 C 
BRANCH  51  52
ATOM     52  O   UNL     1       0.963 -17.900   2.549  1.00  0.00    -0.398 OA
ATOM     53  H   UNL     1       0.821 -18.565   3.251  1.00  0.00     0.209 HD
ENDBRANCH  51  52
ENDBRANCH   2  51
BRANCH   3  54
ATOM     54  O   UNL     1       4.025 -20.414  -1.286  1.00  0.00    -0.391 OA
ATOM     55  H   UNL     1       4.306 -19.913  -0.496  1.00  0.00     0.210 HD
ENDBRANCH   3  54
BRANCH   4  56
ATOM     56  N   UNL     1       2.339 -19.450  -3.456  1.00  0.00     0.090 N 
ATOM     57  H   UNL     1       2.606 -18.552  -3.839  1.00  0.00     0.313 HD
ATOM     58  H   UNL     1       3.173 -20.046  -3.505  1.00  0.00     0.313 HD
ENDBRANCH   4  56
BRANCH   5  59
ATOM     59  O   UNL     1       3.218 -17.205  -2.095  1.00  0.00    -0.348 OA
BRANCH  59  60
ATOM     60  C   UNL     1       3.424 -15.859  -1.628  1.00  0.00     0.186 C 
ATOM     61  C   UNL     1       4.794 -15.287  -2.076  1.00  0.00     0.179 C 
ATOM     62  O   UNL     1       4.728 -14.017  -2.757  1.00  0.00    -0.349 OA
ATOM     63  C   UNL     1       3.890 -13.006  -2.191  1.00  0.00     0.281 C 
ATOM     64  C   UNL     1       2.515 -13.548  -1.706  1.00  0.00     0.149 C 
ATOM     65  C   UNL     1       2.266 -14.995  -2.164  1.00  0.00     0.172 C 
BRANCH  61  66
ATOM     66  C   UNL     1       5.764 -15.148  -0.891  1.00  0.00     0.198 C 
BRANCH  66  67
ATOM     67  O   UNL     1       5.499 -16.140   0.095  1.00  0.00    -0.398 OA
ATOM     68  H   UNL     1       5.904 -16.977  -0.205  1.00  0.00     0.209 HD
ENDBRANCH  66  67
ENDBRANCH  61  66
BRANCH  63  69
ATOM     69  O   UNL     1       3.739 -11.969  -3.154  1.00  0.00    -0.349 OA
BRANCH  69  70
ATOM     70  C   UNL     1       4.482 -10.768  -2.911  1.00  0.00     0.186 C 
ATOM     71  C   UNL     1       5.286 -10.848  -1.590  1.00  0.00     0.176 C 
ATOM     72  O   UNL     1       6.586 -10.211  -1.696  1.00  0.00    -0.379 OA
ATOM     73  C   UNL     1       6.566  -8.982  -2.432  1.00  0.00     0.196 C 
ATOM     74  C   UNL     1       6.210  -9.217  -3.911  1.00  0.00     0.139 C 
ATOM     75  C   UNL     1       5.463 -10.553  -4.088  1.00  0.00     0.174 C 
BRANCH  71  76
ATOM     76  C   UNL     1       4.546 -10.238  -0.391  1.00  0.00     0.198 C 
BRANCH  76  77
ATOM     77  O   UNL     1       3.518  -9.361  -0.847  1.00  0.00    -0.398 OA
ATOM     78  H   UNL     1       3.327  -8.749  -0.110  1.00  0.00     0.209 HD
ENDBRANCH  76  77
ENDBRANCH  71  76
BRANCH  74  79
ATOM     79  N   UNL     1       7.406  -9.196  -4.751  1.00  0.00    -0.352 N 
ATOM     80  C   UNL     1       7.437  -8.582  -5.982  1.00  0.00     0.218 C 
ATOM     81  O   UNL     1       6.494  -7.945  -6.437  1.00  0.00    -0.274 OA
ATOM     82  H   UNL     1       8.117  -9.889  -4.533  1.00  0.00     0.163 HD
BRANCH  80  83
ATOM     83  C   UNL     1       8.765  -8.739  -6.688  1.00  0.00     0.113 C 
BRANCH  83  84
ATOM     84  C   UNL     1       8.869 -10.078  -7.406  1.00  0.00     0.119 C 
BRANCH  84  85
ATOM     85  C   UNL     1       9.739 -11.031  -6.641  1.00  0.00     0.139 C 
ATOM     86  O   UNL     1      10.918 -11.273  -6.837  1.00  0.00    -0.650 OA
BRANCH  85  87
ATOM     87  O   UNL     1       9.067 -11.648  -5.651  1.00  0.00    -0.776 OA
ATOM     88  H   UNL     1       9.133 -12.601  -5.869  1.00  0.00     0.167 HD
ENDBRANCH  85  87
ENDBRANCH  84  85
ENDBRANCH  83  84
ENDBRANCH  80  83
ENDBRANCH  74  79
BRANCH  75  89
ATOM     89  O   UNL     1       6.420 -11.626  -4.195  1.00  0.00    -0.391 OA
ATOM     90  H   UNL     1       6.383 -11.975  -5.105  1.00  0.00     0.210 HD
ENDBRANCH  75  89
ENDBRANCH  69  70
ENDBRANCH  63  69
BRANCH  64  91
ATOM     91  N   UNL     1       1.342 -12.657  -1.737  1.00  0.00    -0.251 NA
ATOM     92  C   UNL     1       0.933 -11.932  -0.650  1.00  0.00     0.198 C 
ATOM     93  O   UNL     1       1.016 -10.705  -0.735  1.00  0.00    -0.280 OA
ATOM     94  H   UNL     1       1.462 -11.960  -2.464  1.00  0.00     0.131 HD
BRANCH  92  95
ATOM     95  C   UNL     1       0.260 -12.612   0.514  1.00  0.00     0.107 C 
BRANCH  95  96
ATOM     96  C   UNL     1      -0.859 -13.479  -0.064  1.00  0.00     0.118 C 
BRANCH  96  97
ATOM     97  C   UNL     1      -0.929 -14.843   0.550  1.00  0.00     0.139 C 
ATOM     98  O   UNL     1      -1.918 -15.428   0.959  1.00  0.00    -0.650 OA
BRANCH  97  99
ATOM     99  O   UNL     1       0.274 -15.455   0.548  1.00  0.00    -0.776 OA
ATOM    100  H   UNL     1       0.261 -16.000  -0.266  1.00  0.00     0.167 HD
ENDBRANCH  97  99
ENDBRANCH  96  97
ENDBRANCH  95  96
ENDBRANCH  92  95
ENDBRANCH  64  91
BRANCH  65 101
ATOM    101  O   UNL     1       2.156 -15.098  -3.581  1.00  0.00    -0.391 OA
ATOM    102  H   UNL     1       2.827 -14.497  -3.962  1.00  0.00     0.210 HD
ENDBRANCH  65 101
ENDBRANCH  59  60
ENDBRANCH   5  59
TORSDOF 44
ENDMDL
